<configuration>
    <input>
        <net-file value="colorado.net.xml"/>
        <route-files value="colorado_1000s_3333v.rou.xml"/>
    </input>
</configuration>
