<?xml version="1.0" encoding="UTF-8"?>

<!-- generated on 2024-11-19 12:31:11 by Eclipse SUMO netedit Version 1.21.0
<neteditConfiguration xmlns:xsi="http://www.w3.org/2001/XMLSchema-instance" xsi:noNamespaceSchemaLocation="http://sumo.dlr.de/xsd/neteditConfiguration.xsd">

    <input>
        <sumo-net-file value="D:\code\MixedTrafficControl_Colorado\sumo_networks\colorado\colorado_roundabouts.net.xml"/>
    </input>

    <output>
        <output-file value="D:\code\MixedTrafficControl_Colorado\sumo_networks\colorado\colorado_roundabouts.net.xml"/>
        <output.street-names value="true"/>
    </output>

    <processing>
        <geometry.min-radius.fix.railways value="false"/>
        <geometry.max-grade.fix value="false"/>
        <offset.disable-normalization value="true"/>
        <lefthand value="0"/>
    </processing>

    <junctions>
        <no-turnarounds value="true"/>
        <junctions.corner-detail value="5"/>
        <junctions.limit-turn-speed value="5.50"/>
        <rectangular-lane-cut value="0"/>
    </junctions>

    <pedestrian>
        <walkingareas value="0"/>
    </pedestrian>

</neteditConfiguration>
-->

<net version="1.20" junctionCornerDetail="5" limitTurnSpeed="5.50" xmlns:xsi="http://www.w3.org/2001/XMLSchema-instance" xsi:noNamespaceSchemaLocation="http://sumo.dlr.de/xsd/net_file.xsd">

    <location netOffset="-522669.76,-4302365.51" convBoundary="594.90,248.45,5265.41,7500.66" origBoundary="-104.738619,38.869717,-104.672604,38.940348" projParameter="+proj=utm +zone=13 +ellps=WGS84 +datum=WGS84 +units=m +no_defs"/>

    <type id="highway.cycleway" priority="1" numLanes="1" speed="5.56" allow="bicycle" oneway="0" width="2.00"/>
    <type id="highway.footway" priority="1" numLanes="1" speed="2.78" allow="pedestrian" oneway="1" width="2.00"/>
    <type id="highway.motorway" priority="14" numLanes="2" speed="39.44" allow="private emergency authority army vip passenger hov taxi bus coach delivery truck trailer motorcycle evehicle custom1 custom2" oneway="1"/>
    <type id="highway.motorway_link" priority="9" numLanes="1" speed="22.22" allow="private emergency authority army vip passenger hov taxi bus coach delivery truck trailer motorcycle evehicle custom1 custom2" oneway="1"/>
    <type id="highway.primary" priority="12" numLanes="2" speed="27.78" disallow="tram rail_urban rail rail_electric rail_fast ship" oneway="0"/>
    <type id="highway.primary_link" priority="7" numLanes="1" speed="22.22" disallow="tram rail_urban rail rail_electric rail_fast ship" oneway="0"/>
    <type id="highway.secondary" priority="11" numLanes="1" speed="27.78" disallow="tram rail_urban rail rail_electric rail_fast ship" oneway="0"/>
    <type id="highway.secondary_link" priority="6" numLanes="1" speed="22.22" disallow="tram rail_urban rail rail_electric rail_fast ship" oneway="0"/>
    <type id="highway.service" priority="1" numLanes="1" speed="5.56" allow="pedestrian delivery bicycle" oneway="0"/>
    <type id="highway.tertiary" priority="10" numLanes="1" speed="22.22" disallow="tram rail_urban rail rail_electric rail_fast ship" oneway="0"/>
    <type id="highway.tertiary_link" priority="5" numLanes="1" speed="22.22" disallow="tram rail_urban rail rail_electric rail_fast ship" oneway="0"/>
    <type id="highway.trunk" priority="13" numLanes="2" speed="27.78" disallow="pedestrian bicycle tram rail_urban rail rail_electric rail_fast ship" oneway="0"/>
    <type id="highway.trunk_link" priority="8" numLanes="1" speed="22.22" disallow="pedestrian bicycle tram rail_urban rail rail_electric rail_fast ship" oneway="0"/>

    <edge id=":10245480667_0" function="internal">
        <lane id=":10245480667_0_0" index="0" disallow="tram rail_urban rail rail_electric rail_fast ship cable_car subway" speed="17.88" length="0.30" shape="3057.24,1667.35 3057.22,1667.65"/>
        <lane id=":10245480667_0_1" index="1" disallow="tram rail_urban rail rail_electric rail_fast ship cable_car subway" speed="17.88" length="0.30" shape="3054.04,1667.15 3054.02,1667.44"/>
    </edge>
    <edge id=":10691297074_0" function="internal">
        <lane id=":10691297074_0_0" index="0" disallow="tram rail_urban rail rail_electric rail_fast ship cable_car subway" speed="20.12" length="8.19" shape="3406.16,6268.28 3403.75,6268.56 3402.14,6269.11 3400.53,6269.66 3398.13,6269.89"/>
        <lane id=":10691297074_0_1" index="1" disallow="tram rail_urban rail rail_electric rail_fast ship cable_car subway" speed="20.12" length="8.19" shape="3406.13,6265.08 3403.74,6265.36 3402.14,6265.91 3400.55,6266.46 3398.16,6266.69"/>
        <lane id=":10691297074_0_2" index="2" disallow="tram rail_urban rail rail_electric rail_fast ship cable_car subway" speed="20.12" length="8.19" shape="3406.13,6265.08 3403.75,6264.86 3402.16,6264.31 3400.57,6263.76 3398.18,6263.49"/>
    </edge>
    <edge id=":10691297076_0" function="internal">
        <lane id=":10691297076_0_0" index="0" disallow="tram rail_urban rail rail_electric rail_fast ship cable_car subway" speed="20.12" length="0.27" shape="3363.46,6269.59 3363.11,6269.58"/>
        <lane id=":10691297076_0_1" index="1" disallow="tram rail_urban rail rail_electric rail_fast ship cable_car subway" speed="20.12" length="0.27" shape="3363.49,6266.39 3363.21,6266.39"/>
        <lane id=":10691297076_0_2" index="2" disallow="tram rail_urban rail rail_electric rail_fast ship cable_car subway" speed="20.12" length="0.27" shape="3363.51,6263.19 3363.31,6263.19"/>
    </edge>
    <edge id=":10798288444_0" function="internal">
        <lane id=":10798288444_0_0" index="0" disallow="tram rail_urban rail rail_electric rail_fast ship cable_car subway" speed="15.65" length="18.18" shape="4723.02,1921.23 4728.31,1921.58 4731.94,1921.55 4735.58,1921.37 4740.90,1921.27"/>
        <lane id=":10798288444_0_1" index="1" disallow="tram rail_urban rail rail_electric rail_fast ship cable_car subway" speed="15.65" length="18.18" shape="4722.73,1924.42 4728.10,1924.77 4731.79,1924.75 4735.49,1924.57 4740.89,1924.47"/>
        <lane id=":10798288444_0_2" index="2" disallow="tram rail_urban rail rail_electric rail_fast ship cable_car subway" speed="15.65" length="18.18" shape="4722.44,1927.61 4727.90,1927.97 4731.65,1927.95 4735.40,1927.77 4740.88,1927.67"/>
    </edge>
    <edge id=":10970357340_0" function="internal">
        <lane id=":10970357340_0_0" index="0" disallow="tram rail_urban rail rail_electric rail_fast ship cable_car subway" speed="17.88" length="8.32" shape="2828.88,1848.18 2831.35,1847.72 2832.90,1846.64 2834.45,1845.56 2836.92,1845.10"/>
        <lane id=":10970357340_0_1" index="1" disallow="tram rail_urban rail rail_electric rail_fast ship cable_car subway" speed="17.88" length="8.32" shape="2828.88,1848.18 2836.88,1848.30"/>
        <lane id=":10970357340_0_2" index="2" disallow="tram rail_urban rail rail_electric rail_fast ship cable_car subway" speed="17.88" length="8.32" shape="2828.83,1851.38 2836.83,1851.50"/>
        <lane id=":10970357340_0_3" index="3" disallow="tram rail_urban rail rail_electric rail_fast ship cable_car subway" speed="17.88" length="8.32" shape="2828.78,1854.58 2836.78,1854.70"/>
        <lane id=":10970357340_0_4" index="4" disallow="tram rail_urban rail rail_electric rail_fast ship cable_car subway" speed="17.88" length="8.32" shape="2828.78,1854.58 2831.24,1855.12 2832.76,1856.24 2834.28,1857.36 2836.74,1857.90"/>
    </edge>
    <edge id=":1125952796_0" function="internal">
        <lane id=":1125952796_0_0" index="0" disallow="tram rail_urban rail rail_electric rail_fast ship cable_car subway" speed="27.78" length="0.27" shape="3313.11,4678.69 3312.92,4678.69"/>
        <lane id=":1125952796_0_1" index="1" disallow="tram rail_urban rail rail_electric rail_fast ship cable_car subway" speed="27.78" length="0.27" shape="3313.13,4675.49 3312.85,4675.49"/>
        <lane id=":1125952796_0_2" index="2" disallow="tram rail_urban rail rail_electric rail_fast ship cable_car subway" speed="27.78" length="0.27" shape="3313.14,4672.29 3312.79,4672.29"/>
    </edge>
    <edge id=":1126878812_0" function="internal">
        <lane id=":1126878812_0_0" index="0" disallow="tram rail_urban rail rail_electric rail_fast ship cable_car subway" speed="20.12" length="0.30" shape="4640.59,3472.54 4640.30,3472.54"/>
        <lane id=":1126878812_0_1" index="1" disallow="tram rail_urban rail rail_electric rail_fast ship cable_car subway" speed="20.12" length="0.30" shape="4640.67,3469.34 4640.36,3469.34"/>
    </edge>
    <edge id=":11761402914_0" function="internal">
        <lane id=":11761402914_0_0" index="0" disallow="tram rail_urban rail rail_electric rail_fast ship cable_car subway" speed="21.17" length="17.96" shape="2566.17,3149.84 2563.84,3147.00 2561.32,3144.09 2558.06,3140.88 2553.53,3137.15"/>
    </edge>
    <edge id=":11761402914_1" function="internal">
        <lane id=":11761402914_1_0" index="0" disallow="tram rail_urban rail rail_electric rail_fast ship cable_car subway" speed="20.12" length="18.29" shape="2568.98,3146.89 2564.52,3143.81 2561.26,3142.02 2557.99,3140.23 2553.53,3137.15"/>
        <lane id=":11761402914_1_1" index="1" disallow="tram rail_urban rail rail_electric rail_fast ship cable_car subway" speed="20.12" length="18.29" shape="2570.92,3144.35 2566.46,3141.27 2563.20,3139.47 2559.93,3137.68 2555.47,3134.60"/>
        <lane id=":11761402914_1_2" index="2" disallow="tram rail_urban rail rail_electric rail_fast ship cable_car subway" speed="20.12" length="18.29" shape="2572.86,3141.80 2568.40,3138.72 2565.13,3136.93 2561.87,3135.13 2557.41,3132.05"/>
    </edge>
    <edge id=":11808121466_0" function="internal">
        <lane id=":11808121466_0_0" index="0" disallow="tram rail_urban rail rail_electric rail_fast ship cable_car subway" speed="15.65" length="0.27" shape="1839.29,5495.39 1839.29,5495.63"/>
        <lane id=":11808121466_0_1" index="1" disallow="tram rail_urban rail rail_electric rail_fast ship cable_car subway" speed="15.65" length="0.27" shape="1836.09,5495.35 1836.09,5495.66"/>
    </edge>
    <edge id=":11808121467_0" function="internal">
        <lane id=":11808121467_0_0" index="0" disallow="tram rail_urban rail rail_electric rail_fast ship cable_car subway" speed="15.65" length="0.28" shape="1839.59,5520.62 1839.59,5520.87"/>
        <lane id=":11808121467_0_1" index="1" disallow="tram rail_urban rail rail_electric rail_fast ship cable_car subway" speed="15.65" length="0.28" shape="1836.39,5520.66 1836.40,5520.97"/>
    </edge>
    <edge id=":11808121468_0" function="internal">
        <lane id=":11808121468_0_0" index="0" disallow="tram rail_urban rail rail_electric rail_fast ship cable_car subway" speed="15.65" length="0.29" shape="1824.09,5495.50 1824.09,5495.19"/>
        <lane id=":11808121468_0_1" index="1" disallow="tram rail_urban rail rail_electric rail_fast ship cable_car subway" speed="15.65" length="0.29" shape="1827.29,5495.51 1827.29,5495.24"/>
    </edge>
    <edge id=":11808122025_0" function="internal">
        <lane id=":11808122025_0_0" index="0" disallow="tram rail_urban rail rail_electric rail_fast ship cable_car subway" speed="6.16" length="1.03" shape="4021.53,6264.88 4020.25,6265.17"/>
        <lane id=":11808122025_0_1" index="1" disallow="tram rail_urban rail rail_electric rail_fast ship cable_car subway" speed="15.65" length="1.03" shape="4021.70,6261.69 4021.86,6262.41"/>
    </edge>
    <edge id=":11808122025_2" function="internal">
        <lane id=":11808122025_2_0" index="0" disallow="tram rail_urban rail rail_electric rail_fast ship cable_car subway" speed="7.42" length="1.98" shape="4023.47,6259.64 4021.86,6258.49"/>
    </edge>
    <edge id=":11808122028_0" function="internal">
        <lane id=":11808122028_0_0" index="0" disallow="tram rail_urban rail rail_electric rail_fast ship cable_car subway" speed="6.85" length="1.68" shape="3973.65,6263.38 3973.13,6263.46 3972.78,6263.16 3972.40,6262.77 3971.82,6262.56"/>
        <lane id=":11808122028_0_1" index="1" disallow="tram rail_urban rail rail_electric rail_fast ship cable_car subway" speed="5.33" length="1.68" shape="3972.13,6260.56 3971.96,6259.36"/>
    </edge>
    <edge id=":11808122028_2" function="internal">
        <lane id=":11808122028_2_0" index="0" disallow="tram rail_urban rail rail_electric rail_fast ship cable_car subway" speed="8.83" length="2.95" shape="3972.24,6252.97 3969.08,6254.94"/>
        <lane id=":11808122028_2_1" index="1" disallow="tram rail_urban rail rail_electric rail_fast ship cable_car subway" speed="6.89" length="2.95" shape="3972.10,6256.16 3970.60,6257.75"/>
    </edge>
    <edge id=":11808136169_0" function="internal">
        <lane id=":11808136169_0_0" index="0" disallow="tram rail_urban rail rail_electric rail_fast ship cable_car subway" speed="15.65" length="0.29" shape="1824.07,5520.49 1824.07,5520.17"/>
        <lane id=":11808136169_0_1" index="1" disallow="tram rail_urban rail rail_electric rail_fast ship cable_car subway" speed="15.65" length="0.29" shape="1827.27,5520.45 1827.27,5520.18"/>
    </edge>
    <edge id=":11841016766_0" function="internal">
        <lane id=":11841016766_0_0" index="0" disallow="tram rail_urban rail rail_electric rail_fast ship cable_car subway" speed="15.65" length="0.30" shape="1841.34,5338.93 1841.34,5339.23"/>
        <lane id=":11841016766_0_1" index="1" disallow="tram rail_urban rail rail_electric rail_fast ship cable_car subway" speed="15.65" length="0.30" shape="1838.14,5338.89 1838.14,5339.19"/>
    </edge>
    <edge id=":118756783#10-AddedOnRampNode_0" function="internal">
        <lane id=":118756783#10-AddedOnRampNode_0_0" index="0" disallow="tram rail_urban rail rail_electric rail_fast ship cable_car subway" speed="20.12" length="8.00" shape="3498.46,3661.54 3490.48,3660.96"/>
        <lane id=":118756783#10-AddedOnRampNode_0_1" index="1" disallow="tram rail_urban rail rail_electric rail_fast ship cable_car subway" speed="20.12" length="8.00" shape="3498.69,3658.35 3490.71,3657.77"/>
        <lane id=":118756783#10-AddedOnRampNode_0_2" index="2" disallow="tram rail_urban rail rail_electric rail_fast ship cable_car subway" speed="20.12" length="8.00" shape="3498.92,3655.16 3490.94,3654.58"/>
    </edge>
    <edge id=":118756783#6-AddedOffRampNode_0" function="internal">
        <lane id=":118756783#6-AddedOffRampNode_0_0" index="0" disallow="tram rail_urban rail rail_electric rail_fast ship cable_car subway" speed="20.12" length="8.20" shape="3801.32,3663.60 3798.85,3664.05 3797.29,3665.11 3795.72,3666.17 3793.25,3666.61"/>
        <lane id=":118756783#6-AddedOffRampNode_0_1" index="1" disallow="tram rail_urban rail rail_electric rail_fast ship cable_car subway" speed="20.12" length="8.20" shape="3801.32,3663.60 3793.32,3663.42"/>
        <lane id=":118756783#6-AddedOffRampNode_0_2" index="2" disallow="tram rail_urban rail rail_electric rail_fast ship cable_car subway" speed="20.12" length="8.20" shape="3801.40,3660.40 3793.40,3660.22"/>
        <lane id=":118756783#6-AddedOffRampNode_0_3" index="3" disallow="tram rail_urban rail rail_electric rail_fast ship cable_car subway" speed="20.12" length="8.20" shape="3801.47,3657.21 3793.48,3657.02"/>
    </edge>
    <edge id=":12059868360_0" function="internal">
        <lane id=":12059868360_0_0" index="0" disallow="tram rail_urban rail rail_electric rail_fast ship cable_car subway" speed="27.78" length="0.28" shape="4804.55,4663.76 4804.89,4663.76"/>
        <lane id=":12059868360_0_1" index="1" disallow="tram rail_urban rail rail_electric rail_fast ship cable_car subway" speed="27.78" length="0.28" shape="4804.54,4666.96 4804.82,4666.96"/>
        <lane id=":12059868360_0_2" index="2" disallow="tram rail_urban rail rail_electric rail_fast ship cable_car subway" speed="27.78" length="0.28" shape="4804.53,4670.16 4804.76,4670.16"/>
    </edge>
    <edge id=":12092966404_0" function="internal">
        <lane id=":12092966404_0_0" index="0" disallow="tram rail_urban rail rail_electric rail_fast ship cable_car subway" speed="22.35" length="8.32" shape="4856.31,2883.37 4856.80,2885.83 4857.88,2887.38 4858.93,2888.93 4859.33,2891.38"/>
        <lane id=":12092966404_0_1" index="1" disallow="tram rail_urban rail rail_electric rail_fast ship cable_car subway" speed="22.35" length="8.32" shape="4856.31,2883.37 4856.14,2891.25"/>
    </edge>
    <edge id=":12092966404_2" function="internal">
        <lane id=":12092966404_2_0" index="0" disallow="tram rail_urban rail rail_electric rail_fast ship cable_car subway" speed="22.35" length="8.75" shape="4849.23,2890.96 4850.11,2888.59 4851.41,2887.18 4852.59,2885.75 4853.11,2883.36"/>
    </edge>
    <edge id=":12092966405_0" function="internal">
        <lane id=":12092966405_0_0" index="0" disallow="tram rail_urban rail rail_electric rail_fast ship cable_car subway" speed="22.35" length="0.35" shape="4832.54,3028.35 4832.55,3028.19 4832.56,3028.09 4832.57,3027.98 4832.59,3027.82"/>
        <lane id=":12092966405_0_1" index="1" disallow="tram rail_urban rail rail_electric rail_fast ship cable_car subway" speed="22.35" length="0.35" shape="4835.74,3028.46 4835.74,3028.41 4835.75,3028.38 4835.75,3028.34 4835.76,3028.29"/>
    </edge>
    <edge id=":12092966414_0" function="internal">
        <lane id=":12092966414_0_0" index="0" disallow="tram rail_urban rail rail_electric rail_fast ship cable_car subway" speed="22.35" length="8.76" shape="4859.57,2154.91 4859.25,2157.35 4858.21,2158.89 4857.08,2160.43 4856.44,2162.88"/>
    </edge>
    <edge id=":12092966414_1" function="internal">
        <lane id=":12092966414_1_0" index="0" disallow="tram rail_urban rail rail_electric rail_fast ship cable_car subway" speed="22.35" length="8.18" shape="4853.25,2162.70 4852.88,2160.31 4851.85,2158.80 4850.78,2157.29 4850.28,2154.90"/>
        <lane id=":12092966414_1_1" index="1" disallow="tram rail_urban rail rail_electric rail_fast ship cable_car subway" speed="22.35" length="8.18" shape="4853.25,2162.70 4853.48,2154.90"/>
    </edge>
    <edge id=":12092966427_0" function="internal">
        <lane id=":12092966427_0_0" index="0" disallow="tram rail_urban rail rail_electric rail_fast ship cable_car subway" speed="22.29" length="3.21" shape="4823.24,1984.74 4823.23,1983.78 4823.20,1983.13 4823.14,1982.48 4823.01,1981.54"/>
    </edge>
    <edge id=":12092966427_1" function="internal">
        <lane id=":12092966427_1_0" index="0" disallow="tram rail_urban rail rail_electric rail_fast ship cable_car subway" speed="22.35" length="3.21" shape="4826.44,1984.72 4826.42,1981.51"/>
        <lane id=":12092966427_1_1" index="1" disallow="tram rail_urban rail rail_electric rail_fast ship cable_car subway" speed="22.35" length="3.21" shape="4829.64,1984.70 4829.62,1981.49"/>
    </edge>
    <edge id=":12092966430_0" function="internal">
        <lane id=":12092966430_0_0" index="0" disallow="tram rail_urban rail rail_electric rail_fast ship cable_car subway" speed="20.05" length="2.93" shape="4778.14,1945.73 4775.21,1945.66"/>
    </edge>
    <edge id=":12092966430_1" function="internal">
        <lane id=":12092966430_1_0" index="0" disallow="tram rail_urban rail rail_electric rail_fast ship cable_car subway" speed="17.88" length="3.00" shape="4778.20,1942.50 4775.23,1942.46"/>
        <lane id=":12092966430_1_1" index="1" disallow="tram rail_urban rail rail_electric rail_fast ship cable_car subway" speed="17.88" length="3.00" shape="4778.25,1939.30 4775.25,1939.26"/>
        <lane id=":12092966430_1_2" index="2" disallow="tram rail_urban rail rail_electric rail_fast ship cable_car subway" speed="17.88" length="3.00" shape="4778.31,1936.10 4775.27,1936.06"/>
    </edge>
    <edge id=":12092966432_0" function="internal">
        <lane id=":12092966432_0_0" index="0" disallow="tram rail_urban rail rail_electric rail_fast ship cable_car subway" speed="18.93" length="8.36" shape="4772.31,1921.32 4774.79,1921.31 4776.48,1921.20 4778.16,1920.91 4780.57,1920.34"/>
    </edge>
    <edge id=":12092966432_1" function="internal">
        <lane id=":12092966432_1_0" index="0" disallow="tram rail_urban rail rail_electric rail_fast ship cable_car subway" speed="15.65" length="1.94" shape="4772.30,1924.52 4773.20,1926.24"/>
    </edge>
    <edge id=":12092966439_0" function="internal">
        <lane id=":12092966439_0_0" index="0" disallow="tram rail_urban rail rail_electric rail_fast ship cable_car subway" speed="22.35" length="3.10" shape="4825.86,1842.49 4825.84,1839.39"/>
        <lane id=":12092966439_0_1" index="1" disallow="tram rail_urban rail rail_electric rail_fast ship cable_car subway" speed="22.35" length="3.10" shape="4829.06,1842.47 4829.04,1839.37"/>
    </edge>
    <edge id=":12092966439_2" function="internal">
        <lane id=":12092966439_2_0" index="0" disallow="tram rail_urban rail rail_electric rail_fast ship cable_car subway" speed="22.29" length="3.09" shape="4822.69,1842.51 4822.64,1839.42"/>
    </edge>
    <edge id=":12142362530_0" function="internal">
        <lane id=":12142362530_0_0" index="0" disallow="tram rail_urban rail rail_electric rail_fast ship cable_car subway" speed="15.65" length="0.30" shape="1997.28,6042.41 1997.46,6042.65"/>
        <lane id=":12142362530_0_1" index="1" disallow="tram rail_urban rail rail_electric rail_fast ship cable_car subway" speed="15.65" length="0.30" shape="1994.78,6044.41 1994.96,6044.65"/>
    </edge>
    <edge id=":12142362531_0" function="internal">
        <lane id=":12142362531_0_0" index="0" disallow="tram rail_urban rail rail_electric rail_fast ship cable_car subway" speed="15.65" length="0.30" shape="1984.96,6051.81 1984.79,6051.57"/>
        <lane id=":12142362531_0_1" index="1" disallow="tram rail_urban rail rail_electric rail_fast ship cable_car subway" speed="15.65" length="0.30" shape="1987.55,6049.93 1987.38,6049.69"/>
    </edge>
    <edge id=":12142362678_0" function="internal">
        <lane id=":12142362678_0_0" index="0" disallow="tram rail_urban rail rail_electric rail_fast ship cable_car subway" speed="15.65" length="0.10" shape="1999.27,4805.65 1999.27,4805.65"/>
        <lane id=":12142362678_0_1" index="1" disallow="tram rail_urban rail rail_electric rail_fast ship cable_car subway" speed="15.65" length="0.10" shape="1996.45,4804.15 1996.45,4804.15"/>
    </edge>
    <edge id=":12142362679_0" function="internal">
        <lane id=":12142362679_0_0" index="0" disallow="tram rail_urban rail rail_electric rail_fast ship cable_car subway" speed="15.65" length="0.30" shape="1985.21,4798.86 1985.36,4798.58"/>
        <lane id=":12142362679_0_1" index="1" disallow="tram rail_urban rail rail_electric rail_fast ship cable_car subway" speed="15.65" length="0.30" shape="1988.05,4800.35 1988.18,4800.09"/>
    </edge>
    <edge id=":12142362680_0" function="internal">
        <lane id=":12142362680_0_0" index="0" disallow="tram rail_urban rail rail_electric rail_fast ship cable_car subway" speed="15.65" length="0.10" shape="1986.45,4829.82 1986.45,4829.82"/>
        <lane id=":12142362680_0_1" index="1" disallow="tram rail_urban rail rail_electric rail_fast ship cable_car subway" speed="15.65" length="0.10" shape="1983.63,4828.32 1983.63,4828.32"/>
    </edge>
    <edge id=":12142362681_0" function="internal">
        <lane id=":12142362681_0_0" index="0" disallow="tram rail_urban rail rail_electric rail_fast ship cable_car subway" speed="15.65" length="0.30" shape="1972.73,4822.54 1972.87,4822.27"/>
        <lane id=":12142362681_0_1" index="1" disallow="tram rail_urban rail rail_electric rail_fast ship cable_car subway" speed="15.65" length="0.30" shape="1975.57,4824.02 1975.70,4823.76"/>
    </edge>
    <edge id=":12183243021_0" function="internal">
        <lane id=":12183243021_0_0" index="0" disallow="tram rail_urban rail rail_electric rail_fast ship cable_car subway" speed="16.77" length="4.37" shape="2040.37,6337.87 2040.55,6339.11 2041.08,6339.93 2041.53,6340.75 2041.50,6341.95"/>
    </edge>
    <edge id=":12183243035_0" function="internal">
        <lane id=":12183243035_0_0" index="0" disallow="tram rail_urban rail rail_electric rail_fast ship cable_car subway" speed="17.88" length="9.33" shape="2046.42,6512.12 2051.18,6520.15"/>
    </edge>
    <edge id=":12183243035_1" function="internal">
        <lane id=":12183243035_1_0" index="0" allow="pedestrian delivery bicycle" speed="6.10" length="7.71" shape="2046.42,6512.12 2047.61,6514.61 2048.09,6516.60 2047.85,6518.10 2046.91,6519.11"/>
    </edge>
    <edge id=":12183243035_2" function="internal">
        <lane id=":12183243035_2_0" index="0" allow="pedestrian delivery bicycle" speed="6.11" length="7.70" shape="2045.29,6516.36 2046.63,6516.02 2048.05,6516.54 2049.57,6517.92 2051.18,6520.15"/>
    </edge>
    <edge id=":12183243035_3" function="internal">
        <lane id=":12183243035_3_0" index="0" allow="pedestrian delivery bicycle" speed="3.65" length="4.67" shape="2045.29,6516.36 2046.73,6516.44 2047.48,6516.92 2047.54,6517.82 2046.91,6519.11"/>
    </edge>
    <edge id=":12183243803_0" function="internal">
        <lane id=":12183243803_0_0" index="0" disallow="tram rail_urban rail rail_electric rail_fast ship cable_car subway" speed="17.88" length="6.97" shape="2041.45,6342.14 2040.93,6344.15 2040.64,6345.53 2040.41,6346.93 2040.08,6348.98"/>
    </edge>
    <edge id=":12183243803_1" function="internal">
        <lane id=":12183243803_1_0" index="0" allow="pedestrian delivery bicycle" speed="5.57" length="5.72" shape="2041.45,6342.14 2040.83,6343.74 2039.96,6344.82 2038.84,6345.39 2037.48,6345.45"/>
    </edge>
    <edge id=":12183243803_2" function="internal">
        <lane id=":12183243803_2_0" index="0" allow="pedestrian delivery bicycle" speed="6.05" length="7.85" shape="2037.91,6342.28 2039.25,6342.86 2040.06,6344.17 2040.34,6346.21 2040.08,6348.98"/>
    </edge>
    <edge id=":12183243803_3" function="internal">
        <lane id=":12183243803_3_0" index="0" allow="pedestrian delivery bicycle" speed="3.65" length="4.67" shape="2037.91,6342.28 2038.99,6343.23 2039.28,6344.08 2038.78,6344.82 2037.48,6345.45"/>
    </edge>
    <edge id=":12192097989_0" function="internal">
        <lane id=":12192097989_0_0" index="0" disallow="tram rail_urban rail rail_electric rail_fast ship cable_car subway" speed="15.65" length="8.00" shape="1365.44,2719.19 1357.76,2721.44"/>
        <lane id=":12192097989_0_1" index="1" disallow="tram rail_urban rail rail_electric rail_fast ship cable_car subway" speed="15.65" length="8.00" shape="1364.53,2716.12 1356.86,2718.37"/>
        <lane id=":12192097989_0_2" index="2" disallow="tram rail_urban rail rail_electric rail_fast ship cable_car subway" speed="15.65" length="8.00" shape="1363.63,2713.05 1355.95,2715.30"/>
    </edge>
    <edge id=":12192097989_3" function="internal">
        <lane id=":12192097989_3_0" index="0" disallow="tram rail_urban rail rail_electric rail_fast ship cable_car subway" speed="15.65" length="8.60" shape="1353.24,2706.09 1355.47,2704.92 1356.63,2703.43 1357.80,2701.94 1360.02,2700.77"/>
        <lane id=":12192097989_3_1" index="1" disallow="tram rail_urban rail rail_electric rail_fast ship cable_car subway" speed="15.65" length="8.60" shape="1354.15,2709.16 1356.37,2707.99 1357.53,2706.50 1358.70,2705.01 1360.92,2703.84"/>
        <lane id=":12192097989_3_2" index="2" disallow="tram rail_urban rail rail_electric rail_fast ship cable_car subway" speed="15.65" length="8.60" shape="1355.05,2712.23 1357.27,2711.06 1358.44,2709.57 1359.60,2708.08 1361.82,2706.91"/>
        <lane id=":12192097989_3_3" index="3" disallow="tram rail_urban rail rail_electric rail_fast ship cable_car subway" speed="15.65" length="8.60" shape="1355.05,2712.23 1362.73,2709.98"/>
    </edge>
    <edge id=":12203246697_0" function="internal">
        <lane id=":12203246697_0_0" index="0" disallow="tram rail_urban rail rail_electric rail_fast ship cable_car subway" speed="15.65" length="3.30" shape="1606.46,6264.12 1603.16,6264.45"/>
        <lane id=":12203246697_0_1" index="1" disallow="tram rail_urban rail rail_electric rail_fast ship cable_car subway" speed="15.65" length="3.30" shape="1606.13,6260.94 1602.86,6261.26"/>
    </edge>
    <edge id=":12203246700_0" function="internal">
        <lane id=":12203246700_0_0" index="0" disallow="tram rail_urban rail rail_electric rail_fast ship cable_car subway" speed="15.65" length="7.28" shape="1485.07,6287.63 1483.37,6288.69 1482.45,6289.77 1481.57,6290.93 1480.00,6292.23"/>
        <lane id=":12203246700_0_1" index="1" disallow="tram rail_urban rail rail_electric rail_fast ship cable_car subway" speed="15.65" length="7.28" shape="1483.74,6284.72 1481.92,6285.84 1480.91,6286.96 1479.95,6288.17 1478.27,6289.53"/>
        <lane id=":12203246700_0_2" index="2" disallow="tram rail_urban rail rail_electric rail_fast ship cable_car subway" speed="15.65" length="7.28" shape="1483.74,6284.72 1481.62,6285.43 1480.05,6285.61 1478.52,6285.87 1476.54,6286.84"/>
    </edge>
    <edge id=":12203249515_0" function="internal">
        <lane id=":12203249515_0_0" index="0" disallow="tram rail_urban rail rail_electric rail_fast ship cable_car subway" speed="15.65" length="9.01" shape="1520.16,6251.43 1522.46,6249.71 1523.09,6247.23 1523.72,6244.75 1526.02,6243.04"/>
        <lane id=":12203249515_0_1" index="1" disallow="tram rail_urban rail rail_electric rail_fast ship cable_car subway" speed="15.65" length="9.01" shape="1520.16,6251.43 1522.38,6250.26 1523.54,6248.77 1524.71,6247.28 1526.93,6246.10"/>
        <lane id=":12203249515_0_2" index="2" disallow="tram rail_urban rail rail_electric rail_fast ship cable_car subway" speed="15.65" length="9.01" shape="1520.16,6251.43 1527.83,6249.17"/>