<configuration>
    <input>
        <net-file value="colorado_roundabouts_singleLine.net.xml"/>
        <route-files value="colorado_roundabouts_singleLine.rou.xml"/>
    </input>
    <time>
        <begin value="0"/>
        <end value="1000"/>
    </time>
</configuration>
