<?xml version="1.0" encoding="UTF-8"?>

<!-- generated on 2025-01-08 14:29:16 by Eclipse SUMO netedit Version 1.21.0
<neteditConfiguration xmlns:xsi="http://www.w3.org/2001/XMLSchema-instance" xsi:noNamespaceSchemaLocation="http://sumo.dlr.de/xsd/neteditConfiguration.xsd">

    <input>
        <sumo-net-file value="D:\Code\MixedTrafficControl_IROS-main\MixedTrafficControl_Colorado\sumo_networks\colorado\colorado_oneIntersection.net.xml"/>
    </input>

    <output>
        <output-file value="D:\Code\MixedTrafficControl_IROS-main\MixedTrafficControl_Colorado\sumo_networks\colorado\colorado_oneIntersection.net.xml"/>
        <output.street-names value="true"/>
    </output>

    <processing>
        <geometry.min-radius.fix.railways value="false"/>
        <geometry.max-grade.fix value="false"/>
        <offset.disable-normalization value="true"/>
        <lefthand value="0"/>
    </processing>

    <junctions>
        <no-turnarounds value="true"/>
        <junctions.corner-detail value="5"/>
        <junctions.limit-turn-speed value="5.50"/>
        <rectangular-lane-cut value="0"/>
    </junctions>

    <pedestrian>
        <walkingareas value="0"/>
    </pedestrian>

</neteditConfiguration>
-->

<net version="1.20" junctionCornerDetail="5" limitTurnSpeed="5.50" xmlns:xsi="http://www.w3.org/2001/XMLSchema-instance" xsi:noNamespaceSchemaLocation="http://sumo.dlr.de/xsd/net_file.xsd">

    <location netOffset="-522669.76,-4302365.51" convBoundary="594.90,2909.90,2001.19,6191.83" origBoundary="-104.738619,38.869717,-104.672604,38.940348" projParameter="+proj=utm +zone=13 +ellps=WGS84 +datum=WGS84 +units=m +no_defs"/>

    <type id="highway.secondary" priority="11" numLanes="1" speed="27.78" disallow="tram rail_urban rail rail_electric rail_fast ship" oneway="0"/>
    <type id="highway.trunk" priority="13" numLanes="2" speed="27.78" disallow="pedestrian bicycle tram rail_urban rail rail_electric rail_fast ship" oneway="0"/>
    <type id="highway.trunk_link" priority="8" numLanes="1" speed="22.22" disallow="pedestrian bicycle tram rail_urban rail rail_electric rail_fast ship" oneway="0"/>

    <edge id=":2052409428_0" function="internal">
        <lane id=":2052409428_0_0" index="0" disallow="pedestrian bicycle tram rail_urban rail rail_electric rail_fast ship cable_car subway" speed="20.05" length="9.20" shape="1700.51,4591.82 1697.82,4591.68 1696.01,4591.15 1694.21,4590.54 1691.52,4590.14"/>
    </edge>
    <edge id=":2052409428_1" function="internal">
        <lane id=":2052409428_1_0" index="0" disallow="tram rail_urban rail rail_electric rail_fast ship cable_car subway" speed="17.88" length="8.54" shape="1700.51,4591.82 1697.82,4591.68 1696.01,4591.19 1694.19,4590.67 1691.50,4590.43"/>
        <lane id=":2052409428_1_1" index="1" disallow="tram rail_urban rail rail_electric rail_fast ship cable_car subway" speed="17.88" length="8.54" shape="1700.37,4588.62 1697.78,4588.48 1696.03,4587.99 1694.28,4587.47 1691.68,4587.23"/>
        <lane id=":2052409428_1_2" index="2" disallow="tram rail_urban rail rail_electric rail_fast ship cable_car subway" speed="17.88" length="8.54" shape="1700.23,4585.43 1697.73,4585.28 1696.04,4584.79 1694.36,4584.27 1691.85,4584.03"/>
        <lane id=":2052409428_1_3" index="3" disallow="tram rail_urban rail rail_electric rail_fast ship cable_car subway" speed="17.88" length="8.54" shape="1700.09,4582.23 1697.68,4582.08 1696.06,4581.59 1694.44,4581.06 1692.03,4580.83"/>
        <lane id=":2052409428_1_4" index="4" disallow="tram rail_urban rail rail_electric rail_fast ship cable_car subway" speed="17.88" length="8.54" shape="1699.95,4579.03 1697.63,4578.88 1696.08,4578.39 1694.52,4577.86 1692.20,4577.63"/>
    </edge>
    <edge id=":2052409866_0" function="internal">
        <lane id=":2052409866_0_0" index="0" disallow="pedestrian bicycle tram rail_urban rail rail_electric rail_fast ship cable_car subway" speed="22.22" length="0.10" shape="1610.36,4547.76 1610.36,4547.76"/>
    </edge>
    <edge id=":2052409945_0" function="internal">
        <lane id=":2052409945_0_0" index="0" disallow="pedestrian bicycle tram rail_urban rail rail_electric rail_fast ship cable_car subway" speed="22.22" length="0.21" shape="1666.30,4547.26 1666.34,4547.31 1666.37,4547.34 1666.40,4547.37 1666.45,4547.41"/>
    </edge>
    <edge id=":2052410056_0" function="internal">
        <lane id=":2052410056_0_0" index="0" disallow="pedestrian bicycle tram rail_urban rail rail_electric rail_fast ship cable_car subway" speed="24.59" length="3.07" shape="1650.47,4643.32 1650.49,4646.38"/>
        <lane id=":2052410056_0_1" index="1" disallow="pedestrian bicycle tram rail_urban rail rail_electric rail_fast ship cable_car subway" speed="24.59" length="3.07" shape="1647.27,4643.33 1647.29,4646.40"/>
        <lane id=":2052410056_0_2" index="2" disallow="pedestrian bicycle tram rail_urban rail rail_electric rail_fast ship cable_car subway" speed="24.59" length="3.07" shape="1644.07,4643.35 1644.09,4646.42"/>
    </edge>
    <edge id=":2052410056_3" function="internal">
        <lane id=":2052410056_3_0" index="0" disallow="pedestrian bicycle tram rail_urban rail rail_electric rail_fast ship cable_car subway" speed="23.41" length="3.07" shape="1653.65,4643.30 1653.69,4646.37"/>
    </edge>
    <edge id=":2052410216_0" function="internal">
        <lane id=":2052410216_0_0" index="0" disallow="pedestrian bicycle tram rail_urban rail rail_electric rail_fast ship cable_car subway" speed="20.05" length="25.21" shape="1681.22,4556.35 1685.34,4557.55 1690.76,4558.49 1697.65,4558.97 1706.16,4558.81"/>
    </edge>
    <edge id=":2052410216_1" function="internal">
        <lane id=":2052410216_1_0" index="0" disallow="tram rail_urban rail rail_electric rail_fast ship cable_car subway" speed="17.88" length="25.33" shape="1680.93,4560.94 1706.16,4558.81"/>
        <lane id=":2052410216_1_1" index="1" disallow="tram rail_urban rail rail_electric rail_fast ship cable_car subway" speed="17.88" length="25.33" shape="1681.12,4564.14 1706.35,4562.00"/>
        <lane id=":2052410216_1_2" index="2" disallow="tram rail_urban rail rail_electric rail_fast ship cable_car subway" speed="17.88" length="25.33" shape="1681.30,4567.34 1706.54,4565.19"/>
    </edge>
    <edge id=":2123432723_0" function="internal">
        <lane id=":2123432723_0_0" index="0" disallow="tram rail_urban rail rail_electric rail_fast ship cable_car subway" speed="17.88" length="1.64" shape="1820.93,4544.32 1820.77,4542.71"/>
        <lane id=":2123432723_0_1" index="1" disallow="tram rail_urban rail rail_electric rail_fast ship cable_car subway" speed="17.88" length="1.64" shape="1821.67,4547.43 1821.63,4545.79"/>
        <lane id=":2123432723_0_2" index="2" disallow="tram rail_urban rail rail_electric rail_fast ship cable_car subway" speed="17.88" length="1.64" shape="1822.41,4550.54 1822.49,4548.87"/>
    </edge>
    <edge id=":2123432803_0" function="internal">
        <lane id=":2123432803_0_0" index="0" disallow="tram rail_urban rail rail_electric rail_fast ship cable_car subway" speed="17.88" length="23.01" shape="1857.95,4532.28 1880.30,4525.96"/>
        <lane id=":2123432803_0_1" index="1" disallow="tram rail_urban rail rail_electric rail_fast ship cable_car subway" speed="17.88" length="23.01" shape="1858.82,4535.36 1880.95,4529.09"/>
        <lane id=":2123432803_0_2" index="2" disallow="tram rail_urban rail rail_electric rail_fast ship cable_car subway" speed="17.88" length="23.01" shape="1859.69,4538.44 1881.61,4532.22"/>
    </edge>
    <edge id=":229489592#3-AddedOffRampNode_0" function="internal">
        <lane id=":229489592#3-AddedOffRampNode_0_0" index="0" disallow="pedestrian bicycle tram rail_urban rail rail_electric rail_fast ship cable_car subway" speed="24.59" length="8.20" shape="1650.21,4412.58 1650.72,4415.04 1651.82,4416.57 1652.92,4418.11 1653.43,4420.57"/>
        <lane id=":229489592#3-AddedOffRampNode_0_1" index="1" disallow="pedestrian bicycle tram rail_urban rail rail_electric rail_fast ship cable_car subway" speed="24.59" length="8.20" shape="1650.21,4412.58 1650.23,4420.58"/>
        <lane id=":229489592#3-AddedOffRampNode_0_2" index="2" disallow="pedestrian bicycle tram rail_urban rail rail_electric rail_fast ship cable_car subway" speed="24.59" length="8.20" shape="1647.01,4412.59 1647.03,4420.59"/>
        <lane id=":229489592#3-AddedOffRampNode_0_3" index="3" disallow="pedestrian bicycle tram rail_urban rail rail_electric rail_fast ship cable_car subway" speed="24.59" length="8.20" shape="1643.81,4412.59 1643.83,4420.60"/>
    </edge>
    <edge id=":229489597-AddedOnRampNode_0" function="internal">
        <lane id=":229489597-AddedOnRampNode_0_0" index="0" disallow="pedestrian bicycle tram rail_urban rail rail_electric rail_fast ship cable_car subway" speed="24.59" length="8.00" shape="1651.09,4740.86 1651.19,4748.86"/>
        <lane id=":229489597-AddedOnRampNode_0_1" index="1" disallow="pedestrian bicycle tram rail_urban rail rail_electric rail_fast ship cable_car subway" speed="24.59" length="8.00" shape="1647.89,4740.90 1647.99,4748.90"/>
        <lane id=":229489597-AddedOnRampNode_0_2" index="2" disallow="pedestrian bicycle tram rail_urban rail rail_electric rail_fast ship cable_car subway" speed="24.59" length="8.00" shape="1644.69,4740.94 1644.79,4748.94"/>
    </edge>
    <edge id=":229489601-AddedOnRampNode_0" function="internal">
        <lane id=":229489601-AddedOnRampNode_0_0" index="0" disallow="pedestrian bicycle tram rail_urban rail rail_electric rail_fast ship cable_car subway" speed="24.59" length="8.00" shape="1623.91,4419.94 1623.85,4411.94"/>
        <lane id=":229489601-AddedOnRampNode_0_1" index="1" disallow="pedestrian bicycle tram rail_urban rail rail_electric rail_fast ship cable_car subway" speed="24.59" length="8.00" shape="1627.11,4419.92 1627.05,4411.92"/>
        <lane id=":229489601-AddedOnRampNode_0_2" index="2" disallow="pedestrian bicycle tram rail_urban rail rail_electric rail_fast ship cable_car subway" speed="24.59" length="8.00" shape="1630.31,4419.89 1630.25,4411.89"/>
    </edge>
    <edge id=":38520914#1-AddedOnRampNode_0" function="internal">
        <lane id=":38520914#1-AddedOnRampNode_0_0" index="0" disallow="tram rail_urban rail rail_electric rail_fast ship cable_car subway" speed="17.88" length="8.00" shape="1476.66,4585.88 1468.66,4585.96"/>
        <lane id=":38520914#1-AddedOnRampNode_0_1" index="1" disallow="tram rail_urban rail rail_electric rail_fast ship cable_car subway" speed="17.88" length="8.00" shape="1476.63,4582.68 1468.63,4582.76"/>
        <lane id=":38520914#1-AddedOnRampNode_0_2" index="2" disallow="tram rail_urban rail rail_electric rail_fast ship cable_car subway" speed="17.88" length="8.00" shape="1476.60,4579.48 1468.60,4579.56"/>
    </edge>
    <edge id=":455855386_0" function="internal">
        <lane id=":455855386_0_0" index="0" disallow="tram rail_urban rail rail_electric rail_fast ship cable_car subway" speed="17.88" length="0.70" shape="1421.87,4566.21 1422.21,4566.14 1422.44,4566.10 1422.67,4566.07 1423.02,4566.04"/>
        <lane id=":455855386_0_1" index="1" disallow="tram rail_urban rail rail_electric rail_fast ship cable_car subway" speed="17.88" length="0.70" shape="1422.57,4569.34 1422.77,4569.29 1422.91,4569.27 1423.05,4569.25 1423.26,4569.23"/>
        <lane id=":455855386_0_2" index="2" disallow="tram rail_urban rail rail_electric rail_fast ship cable_car subway" speed="17.88" length="0.70" shape="1423.27,4572.46 1423.34,4572.44 1423.38,4572.44 1423.43,4572.43 1423.50,4572.42"/>
    </edge>
    <edge id=":455859464_0" function="internal">
        <lane id=":455859464_0_0" index="0" disallow="pedestrian bicycle tram rail_urban rail rail_electric rail_fast ship cable_car subway" speed="23.41" length="3.40" shape="1621.14,4517.97 1621.03,4516.96 1620.95,4516.28 1620.92,4515.58 1620.91,4514.57"/>
    </edge>
    <edge id=":455859464_1" function="internal">
        <lane id=":455859464_1_0" index="0" disallow="pedestrian bicycle tram rail_urban rail rail_electric rail_fast ship cable_car subway" speed="24.59" length="3.40" shape="1624.11,4517.98 1624.11,4514.58"/>
        <lane id=":455859464_1_1" index="1" disallow="pedestrian bicycle tram rail_urban rail rail_electric rail_fast ship cable_car subway" speed="24.59" length="3.40" shape="1627.31,4517.98 1627.31,4514.58"/>
        <lane id=":455859464_1_2" index="2" disallow="pedestrian bicycle tram rail_urban rail rail_electric rail_fast ship cable_car subway" speed="24.59" length="3.40" shape="1630.51,4517.99 1630.51,4514.59"/>
    </edge>
    <edge id=":455859767_0" function="internal">
        <lane id=":455859767_0_0" index="0" disallow="pedestrian bicycle tram rail_urban rail rail_electric rail_fast ship cable_car subway" speed="23.41" length="9.05" shape="1621.64,4642.95 1621.89,4633.90"/>
    </edge>
    <edge id=":455859767_1" function="internal">
        <lane id=":455859767_1_0" index="0" disallow="pedestrian bicycle tram rail_urban rail rail_electric rail_fast ship cable_car subway" speed="24.59" length="8.75" shape="1621.64,4642.95 1621.54,4633.88"/>
        <lane id=":455859767_1_1" index="1" disallow="pedestrian bicycle tram rail_urban rail rail_electric rail_fast ship cable_car subway" speed="24.59" length="8.75" shape="1624.84,4642.91 1624.74,4634.08"/>
        <lane id=":455859767_1_2" index="2" disallow="pedestrian bicycle tram rail_urban rail rail_electric rail_fast ship cable_car subway" speed="24.59" length="8.75" shape="1628.04,4642.88 1627.94,4634.28"/>
        <lane id=":455859767_1_3" index="3" disallow="pedestrian bicycle tram rail_urban rail rail_electric rail_fast ship cable_car subway" speed="24.59" length="8.75" shape="1631.24,4642.84 1631.14,4634.49"/>
        <lane id=":455859767_1_4" index="4" disallow="pedestrian bicycle tram rail_urban rail rail_electric rail_fast ship cable_car subway" speed="24.59" length="8.75" shape="1631.24,4642.84 1631.71,4640.34 1632.79,4638.76 1633.87,4637.19 1634.35,4634.69"/>
    </edge>
    <edge id=":455859771_0" function="internal">
        <lane id=":455859771_0_0" index="0" disallow="tram rail_urban rail rail_electric rail_fast ship cable_car subway" speed="17.88" length="3.34" shape="1574.50,4587.15 1571.16,4587.11"/>
        <lane id=":455859771_0_1" index="1" disallow="tram rail_urban rail rail_electric rail_fast ship cable_car subway" speed="17.88" length="3.34" shape="1574.53,4583.95 1571.19,4583.91"/>
        <lane id=":455859771_0_2" index="2" disallow="tram rail_urban rail rail_electric rail_fast ship cable_car subway" speed="17.88" length="3.34" shape="1574.57,4580.75 1571.23,4580.71"/>
    </edge>
    <edge id=":455859771_3" function="internal">
        <lane id=":455859771_3_0" index="0" disallow="pedestrian bicycle tram rail_urban rail rail_electric rail_fast ship cable_car subway" speed="20.05" length="3.34" shape="1574.46,4590.20 1571.12,4590.31"/>
    </edge>
    <edge id=":539653860_0" function="internal">
        <lane id=":539653860_0_0" index="0" disallow="pedestrian bicycle tram rail_urban rail rail_electric rail_fast ship cable_car subway" speed="23.41" length="7.71" shape="1653.15,4512.80 1653.26,4520.51"/>
    </edge>
    <edge id=":539653860_1" function="internal">
        <lane id=":539653860_1_0" index="0" disallow="pedestrian bicycle tram rail_urban rail rail_electric rail_fast ship cable_car subway" speed="24.59" length="8.14" shape="1653.15,4512.80 1653.10,4520.51"/>
        <lane id=":539653860_1_1" index="1" disallow="pedestrian bicycle tram rail_urban rail rail_electric rail_fast ship cable_car subway" speed="24.59" length="8.14" shape="1649.95,4512.77 1649.90,4520.63"/>
        <lane id=":539653860_1_2" index="2" disallow="pedestrian bicycle tram rail_urban rail rail_electric rail_fast ship cable_car subway" speed="24.59" length="8.14" shape="1646.75,4512.75 1646.70,4520.74"/>
        <lane id=":539653860_1_3" index="3" disallow="pedestrian bicycle tram rail_urban rail rail_electric rail_fast ship cable_car subway" speed="24.59" length="8.14" shape="1643.55,4512.72 1643.50,4520.85"/>
        <lane id=":539653860_1_4" index="4" disallow="pedestrian bicycle tram rail_urban rail rail_electric rail_fast ship cable_car subway" speed="24.59" length="8.14" shape="1643.55,4512.72 1643.03,4515.26 1641.92,4516.84 1640.81,4518.43 1640.29,4520.96"/>
    </edge>
    <edge id=":553324588_0" function="internal">
        <lane id=":553324588_0_0" index="0" disallow="tram rail_urban rail rail_electric rail_fast ship cable_car subway" speed="17.88" length="8.81" shape="1914.19,4546.02 1911.70,4546.42 1909.87,4545.92 1908.04,4545.43 1905.55,4545.81"/>
        <lane id=":553324588_0_1" index="1" disallow="tram rail_urban rail rail_electric rail_fast ship cable_car subway" speed="17.88" length="8.81" shape="1913.06,4543.02 1910.58,4543.42 1908.76,4542.93 1906.93,4542.43 1904.45,4542.81"/>
        <lane id=":553324588_0_2" index="2" disallow="tram rail_urban rail rail_electric rail_fast ship cable_car subway" speed="17.88" length="8.81" shape="1911.94,4540.03 1909.46,4540.42 1907.64,4539.93 1905.82,4539.42 1903.34,4539.80"/>
    </edge>
    <edge id=":718258596-AddedOffRampNode_0" function="internal">
        <lane id=":718258596-AddedOffRampNode_0_0" index="0" disallow="pedestrian bicycle tram rail_urban rail rail_electric rail_fast ship cable_car subway" speed="24.59" length="8.20" shape="1625.98,4742.74 1625.45,4740.28 1624.33,4738.76 1623.21,4737.23 1622.68,4734.77"/>
        <lane id=":718258596-AddedOffRampNode_0_1" index="1" disallow="pedestrian bicycle tram rail_urban rail rail_electric rail_fast ship cable_car subway" speed="24.59" length="8.20" shape="1625.98,4742.74 1625.88,4734.74"/>
        <lane id=":718258596-AddedOffRampNode_0_2" index="2" disallow="pedestrian bicycle tram rail_urban rail rail_electric rail_fast ship cable_car subway" speed="24.59" length="8.20" shape="1629.18,4742.70 1629.08,4734.70"/>
        <lane id=":718258596-AddedOffRampNode_0_3" index="3" disallow="pedestrian bicycle tram rail_urban rail rail_electric rail_fast ship cable_car subway" speed="24.59" length="8.20" shape="1632.38,4742.66 1632.28,4734.66"/>
    </edge>
    <edge id=":7233779940_0" function="internal">
        <lane id=":7233779940_0_0" index="0" disallow="pedestrian bicycle tram rail_urban rail rail_electric rail_fast ship cable_car subway" speed="20.05" length="10.32" shape="1574.38,4558.80 1577.46,4558.81 1579.59,4558.94 1581.68,4559.22 1584.65,4559.67"/>
    </edge>
    <edge id=":7233779940_1" function="internal">
        <lane id=":7233779940_1_0" index="0" disallow="tram rail_urban rail rail_electric rail_fast ship cable_car subway" speed="17.88" length="9.52" shape="1574.38,4558.80 1584.80,4558.68"/>
        <lane id=":7233779940_1_1" index="1" disallow="tram rail_urban rail rail_electric rail_fast ship cable_car subway" speed="17.88" length="9.52" shape="1574.41,4562.00 1584.30,4561.89"/>
        <lane id=":7233779940_1_2" index="2" disallow="tram rail_urban rail rail_electric rail_fast ship cable_car subway" speed="17.88" length="9.52" shape="1574.44,4565.20 1583.80,4565.10"/>
        <lane id=":7233779940_1_3" index="3" disallow="tram rail_urban rail rail_electric rail_fast ship cable_car subway" speed="17.88" length="9.52" shape="1574.46,4568.40 1583.30,4568.30"/>
        <lane id=":7233779940_1_4" index="4" disallow="tram rail_urban rail rail_electric rail_fast ship cable_car subway" speed="17.88" length="9.52" shape="1574.46,4568.40 1577.02,4568.87 1578.63,4569.96 1580.25,4571.04 1582.80,4571.51"/>
    </edge>
    <edge id=":877763350#4-AddedOffRampNode_0" function="internal">
        <lane id=":877763350#4-AddedOffRampNode_0_0" index="0" disallow="tram rail_urban rail rail_electric rail_fast ship cable_car subway" speed="17.88" length="8.51" shape="1799.82,4575.71 1797.45,4576.92 1796.34,4578.80 1795.23,4580.69 1792.85,4581.90"/>
        <lane id=":877763350#4-AddedOffRampNode_0_1" index="1" disallow="tram rail_urban rail rail_electric rail_fast ship cable_car subway" speed="17.88" length="8.51" shape="1799.82,4575.71 1797.51,4576.39 1796.04,4577.23 1794.57,4578.07 1792.26,4578.75"/>
        <lane id=":877763350#4-AddedOffRampNode_0_2" index="2" disallow="tram rail_urban rail rail_electric rail_fast ship cable_car subway" speed="17.88" length="8.51" shape="1799.82,4575.71 1797.42,4575.90 1795.75,4575.66 1794.07,4575.41 1791.67,4575.61"/>
        <lane id=":877763350#4-AddedOffRampNode_0_3" index="3" disallow="tram rail_urban rail rail_electric rail_fast ship cable_car subway" speed="17.88" length="8.51" shape="1799.23,4572.56 1796.83,4572.76 1795.15,4572.51 1793.48,4572.27 1791.08,4572.46"/>
        <lane id=":877763350#4-AddedOffRampNode_0_4" index="4" disallow="tram rail_urban rail rail_electric rail_fast ship cable_car subway" speed="17.88" length="8.51" shape="1798.64,4569.42 1796.24,4569.61 1794.56,4569.37 1792.89,4569.12 1790.48,4569.32"/>
    </edge>
    <edge id=":877763365#2-AddedOffRampNode_0" function="internal">
        <lane id=":877763365#2-AddedOffRampNode_0_0" index="0" disallow="tram rail_urban rail rail_electric rail_fast ship cable_car subway" speed="17.88" length="8.20" shape="1474.54,4563.48 1476.99,4562.90 1478.49,4561.75 1479.99,4560.60 1482.43,4560.01"/>
        <lane id=":877763365#2-AddedOffRampNode_0_1" index="1" disallow="tram rail_urban rail rail_electric rail_fast ship cable_car subway" speed="17.88" length="8.20" shape="1474.54,4563.48 1482.54,4563.21"/>
        <lane id=":877763365#2-AddedOffRampNode_0_2" index="2" disallow="tram rail_urban rail rail_electric rail_fast ship cable_car subway" speed="17.88" length="8.20" shape="1474.66,4566.68 1482.65,4566.41"/>
        <lane id=":877763365#2-AddedOffRampNode_0_3" index="3" disallow="tram rail_urban rail rail_electric rail_fast ship cable_car subway" speed="17.88" length="8.20" shape="1474.77,4569.88 1482.76,4569.61"/>
    </edge>
    <edge id=":877763366#0-AddedOnRampNode_0" function="internal">
        <lane id=":877763366#0-AddedOnRampNode_0_0" index="0" disallow="tram rail_urban rail rail_electric rail_fast ship cable_car subway" speed="17.88" length="1.91" shape="1804.43,4546.39 1805.10,4548.15"/>
        <lane id=":877763366#0-AddedOnRampNode_0_1" index="1" disallow="tram rail_urban rail rail_electric rail_fast ship cable_car subway" speed="17.88" length="1.91" shape="1805.07,4549.52 1805.87,4551.26"/>
        <lane id=":877763366#0-AddedOnRampNode_0_2" index="2" disallow="tram rail_urban rail rail_electric rail_fast ship cable_car subway" speed="17.88" length="1.91" shape="1805.71,4552.66 1806.63,4554.36"/>
    </edge>
    <edge id=":9055054202_0" function="internal">
        <lane id=":9055054202_0_0" index="0" disallow="pedestrian bicycle tram rail_urban rail rail_electric rail_fast ship cable_car subway" speed="24.59" length="8.13" shape="1650.02,6124.08 1650.53,6126.54 1651.64,6128.07 1652.75,6129.61 1653.26,6132.07"/>
        <lane id=":9055054202_0_1" index="1" disallow="pedestrian bicycle tram rail_urban rail rail_electric rail_fast ship cable_car subway" speed="24.59" length="8.13" shape="1650.02,6124.08 1650.06,6132.08"/>
        <lane id=":9055054202_0_2" index="2" disallow="pedestrian bicycle tram rail_urban rail rail_electric rail_fast ship cable_car subway" speed="24.59" length="8.13" shape="1646.82,6124.09 1646.86,6132.10"/>
        <lane id=":9055054202_0_3" index="3" disallow="pedestrian bicycle tram rail_urban rail rail_electric rail_fast ship cable_car subway" speed="24.59" length="8.13" shape="1643.62,6124.11 1643.66,6132.11"/>
        <lane id=":9055054202_0_4" index="4" disallow="pedestrian bicycle tram rail_urban rail rail_electric rail_fast ship cable_car subway" speed="24.59" length="8.13" shape="1640.42,6124.13 1640.46,6132.12"/>
        <lane id=":9055054202_0_5" index="5" disallow="pedestrian bicycle tram rail_urban rail rail_electric rail_fast ship cable_car subway" speed="24.59" length="8.13" shape="1637.22,6124.14 1637.26,6132.13"/>
    </edge>
    <edge id=":9055054203_0" function="internal">
        <lane id=":9055054203_0_0" index="0" disallow="pedestrian bicycle tram rail_urban rail rail_electric rail_fast ship cable_car subway" speed="24.59" length="8.21" shape="1648.11,6064.20 1648.37,6066.60 1648.93,6068.20 1649.49,6069.80 1649.75,6072.20"/>
        <lane id=":9055054203_0_1" index="1" disallow="pedestrian bicycle tram rail_urban rail rail_electric rail_fast ship cable_car subway" speed="24.59" length="8.21" shape="1648.11,6064.20 1647.87,6066.60 1647.33,6068.21 1646.79,6069.81 1646.55,6072.21"/>
        <lane id=":9055054203_0_2" index="2" disallow="pedestrian bicycle tram rail_urban rail rail_electric rail_fast ship cable_car subway" speed="24.59" length="8.21" shape="1644.91,6064.22 1644.67,6066.62 1644.13,6068.23 1643.59,6069.83 1643.35,6072.23"/>
        <lane id=":9055054203_0_3" index="3" disallow="pedestrian bicycle tram rail_urban rail rail_electric rail_fast ship cable_car subway" speed="24.59" length="8.21" shape="1641.71,6064.24 1641.47,6066.64 1640.93,6068.24 1640.39,6069.85 1640.15,6072.25"/>
        <lane id=":9055054203_0_4" index="4" disallow="pedestrian bicycle tram rail_urban rail rail_electric rail_fast ship cable_car subway" speed="24.59" length="8.21" shape="1638.51,6064.26 1638.27,6066.65 1637.73,6068.26 1637.19,6069.86 1636.95,6072.26"/>
    </edge>
    <edge id=":9055054204_0" function="internal">
        <lane id=":9055054204_0_0" index="0" disallow="pedestrian bicycle tram rail_urban rail rail_electric rail_fast ship cable_car subway" speed="24.59" length="8.21" shape="1646.08,5983.97 1646.35,5986.37 1646.91,5987.97 1647.47,5989.57 1647.73,5991.96"/>
        <lane id=":9055054204_0_1" index="1" disallow="pedestrian bicycle tram rail_urban rail rail_electric rail_fast ship cable_car subway" speed="24.59" length="8.21" shape="1646.08,5983.97 1645.85,5986.37 1645.31,5987.98 1644.77,5989.58 1644.53,5991.98"/>
        <lane id=":9055054204_0_2" index="2" disallow="pedestrian bicycle tram rail_urban rail rail_electric rail_fast ship cable_car subway" speed="24.59" length="8.21" shape="1642.89,5983.99 1642.65,5986.39 1642.11,5987.99 1641.57,5989.60 1641.33,5992.00"/>
        <lane id=":9055054204_0_3" index="3" disallow="pedestrian bicycle tram rail_urban rail rail_electric rail_fast ship cable_car subway" speed="24.59" length="8.21" shape="1639.69,5984.01 1639.45,5986.41 1638.91,5988.01 1638.37,5989.62 1638.13,5992.02"/>
    </edge>
    <edge id=":9055054205_0" function="internal">
        <lane id=":9055054205_0_0" index="0" disallow="pedestrian bicycle tram rail_urban rail rail_electric rail_fast ship cable_car subway" speed="24.59" length="8.00" shape="1621.21,5851.06 1621.32,5843.07"/>
        <lane id=":9055054205_0_1" index="1" disallow="pedestrian bicycle tram rail_urban rail rail_electric rail_fast ship cable_car subway" speed="24.59" length="8.00" shape="1624.41,5851.11 1624.52,5843.11"/>
        <lane id=":9055054205_0_2" index="2" disallow="pedestrian bicycle tram rail_urban rail rail_electric rail_fast ship cable_car subway" speed="24.59" length="8.00" shape="1627.61,5851.16 1627.72,5843.15"/>
    </edge>
    <edge id=":cluster_2052409422_2052409707_542824247_542824770_#2more_0" function="internal">
        <lane id=":cluster_2052409422_2052409707_542824247_542824770_#2more_0_0" index="0" disallow="pedestrian bicycle tram rail_urban rail rail_electric rail_fast ship cable_car subway" speed="7.32" length="11.48" shape="1621.10,4596.16 1620.71,4592.44 1619.64,4589.77 1617.89,4588.16 1615.46,4587.61"/>
    </edge>
    <edge id=":cluster_2052409422_2052409707_542824247_542824770_#2more_1" function="internal">
        <lane id=":cluster_2052409422_2052409707_542824247_542824770_#2more_1_0" index="0" disallow="pedestrian bicycle tram rail_urban rail rail_electric rail_fast ship cable_car subway" speed="24.59" length="43.55" shape="1624.30,4596.16 1624.06,4552.62"/>
        <lane id=":cluster_2052409422_2052409707_542824247_542824770_#2more_1_1" index="1" disallow="pedestrian bicycle tram rail_urban rail rail_electric rail_fast ship cable_car subway" speed="24.59" length="43.55" shape="1627.50,4596.17 1627.26,4552.62"/>
        <lane id=":cluster_2052409422_2052409707_542824247_542824770_#2more_1_2" index="2" disallow="pedestrian bicycle tram rail_urban rail rail_electric rail_fast ship cable_car subway" speed="24.59" length="43.55" shape="1630.71,4596.18 1630.46,4552.63"/>
    </edge>
    <edge id=":cluster_2052409422_2052409707_542824247_542824770_#2more_4" function="internal">
        <lane id=":cluster_2052409422_2052409707_542824247_542824770_#2more_4_0" index="0" disallow="pedestrian bicycle tram rail_urban rail rail_electric rail_fast ship cable_car subway" speed="13.56" length="43.20" shape="1633.91,4596.18 1635.29,4583.53 1639.82,4574.49 1647.50,4569.08 1658.33,4567.30"/>
    </edge>
    <edge id=":cluster_2052409422_2052409707_542824247_542824770_#2more_5" function="internal">
        <lane id=":cluster_2052409422_2052409707_542824247_542824770_#2more_5_0" index="0" disallow="tram rail_urban rail rail_electric rail_fast ship cable_car subway" speed="17.88" length="42.89" shape="1658.28,4590.59 1615.46,4587.61"/>
        <lane id=":cluster_2052409422_2052409707_542824247_542824770_#2more_5_1" index="1" disallow="tram rail_urban rail rail_electric rail_fast ship cable_car subway" speed="17.88" length="42.89" shape="1658.28,4587.39 1615.50,4584.41"/>
        <lane id=":cluster_2052409422_2052409707_542824247_542824770_#2more_5_2" index="2" disallow="tram rail_urban rail rail_electric rail_fast ship cable_car subway" speed="17.88" length="42.89" shape="1658.29,4584.19 1615.54,4581.21"/>
    </edge>