<?xml version="1.0" encoding="UTF-8"?>

<!-- generated on 2025-01-31 11:42:32 by Eclipse SUMO duarouter Version 1.21.0
<duarouterConfiguration xmlns:xsi="http://www.w3.org/2001/XMLSchema-instance" xsi:noNamespaceSchemaLocation="http://sumo.dlr.de/xsd/duarouterConfiguration.xsd">

    <input>
        <net-file value="file/colorado_medium.net.xml"/>
        <route-files value="file/medium_trips_NSSN.trips.xml"/>
    </input>

    <output>
        <output-file value="medium_routes.rou.xml"/>
    </output>

    <processing>
        <repair value="true"/>
    </processing>

</duarouterConfiguration>
-->

<routes xmlns:xsi="http://www.w3.org/2001/XMLSchema-instance" xsi:noNamespaceSchemaLocation="http://sumo.dlr.de/xsd/routes_file.xsd">
    <vehicle id="0" depart="0.00">
        <route edges="978613905 978613909 978613908 978613907#0 978613907#1 978613917#0 978613917#1 978613918 718258596 718258596-AddedOffRampEdge 978615349#0 978615347#1 229489601-AddedOnRampEdge 229489601 229489601-AddedOffRampEdge 877763351#0 229489595#2 229489595#3-AddedOnRampEdge 229489595#3 229489595#3-AddedOffRampEdge 229489595#4 229489593#1 229489593#3-AddedOnRampEdge 229489593#3"/>
    </vehicle>
    <vehicle id="1" depart="0.00">
        <route edges="978613905 978613909 978613908 978613907#0 978613907#1 978613917#0 978613917#1 978613918 718258596 718258596-AddedOffRampEdge 978615349#0 978615347#1 229489601-AddedOnRampEdge 229489601 229489601-AddedOffRampEdge 877763351#0 229489595#2 229489595#3-AddedOnRampEdge 229489595#3 229489595#3-AddedOffRampEdge 229489595#4 229489593#1 229489593#3-AddedOnRampEdge 229489593#3"/>
    </vehicle>
    <vehicle id="2" depart="0.00">
        <route edges="978613905 978613909 978613908 978613907#0 978613907#1 978613917#0 978613917#1 978613918 718258596 718258596-AddedOffRampEdge 978615349#0 978615347#1 229489601-AddedOnRampEdge 229489601 229489601-AddedOffRampEdge 877763351#0 229489595#2 229489595#3-AddedOnRampEdge 229489595#3 229489595#3-AddedOffRampEdge 229489595#4 229489593#1 229489593#3-AddedOnRampEdge 229489593#3"/>
    </vehicle>
    <vehicle id="3" depart="0.00">
        <route edges="978613905 978613909 978613908 978613907#0 978613907#1 978613917#0 978613917#1 978613918 718258596 718258596-AddedOffRampEdge 978615349#0 978615347#1 229489601-AddedOnRampEdge 229489601 229489601-AddedOffRampEdge 877763351#0 229489595#2 229489595#3-AddedOnRampEdge 229489595#3 229489595#3-AddedOffRampEdge 229489595#4 229489593#1 229489593#3-AddedOnRampEdge 229489593#3"/>
    </vehicle>
    <vehicle id="4" depart="0.00">
        <route edges="978613905 978613909 978613908 978613907#0 978613907#1 978613917#0 978613917#1 978613918 718258596 718258596-AddedOffRampEdge 978615349#0 978615347#1 229489601-AddedOnRampEdge 229489601 229489601-AddedOffRampEdge 877763351#0 229489595#2 229489595#3-AddedOnRampEdge 229489595#3 229489595#3-AddedOffRampEdge 229489595#4 229489593#1 229489593#3-AddedOnRampEdge 229489593#3"/>
    </vehicle>
    <vehicle id="5" depart="0.00">
        <route edges="978613905 978613909 978613908 978613907#0 978613907#1 978613917#0 978613917#1 978613918 718258596 718258596-AddedOffRampEdge 978615349#0 978615347#1 229489601-AddedOnRampEdge 229489601 229489601-AddedOffRampEdge 877763351#0 229489595#2 229489595#3-AddedOnRampEdge 229489595#3 229489595#3-AddedOffRampEdge 229489595#4 229489593#1 229489593#3-AddedOnRampEdge 229489593#3"/>
    </vehicle>
    <vehicle id="6" depart="0.00">
        <route edges="978613905 978613909 978613908 978613907#0 978613907#1 978613917#0 978613917#1 978613918 718258596 718258596-AddedOffRampEdge 978615349#0 978615347#1 229489601-AddedOnRampEdge 229489601 229489601-AddedOffRampEdge 877763351#0 229489595#2 229489595#3-AddedOnRampEdge 229489595#3 229489595#3-AddedOffRampEdge 229489595#4 229489593#1 229489593#3-AddedOnRampEdge 229489593#3"/>
    </vehicle>
    <vehicle id="7" depart="0.00">
        <route edges="978613905 978613909 978613908 978613907#0 978613907#1 978613917#0 978613917#1 978613918 718258596 718258596-AddedOffRampEdge 978615349#0 978615347#1 229489601-AddedOnRampEdge 229489601 229489601-AddedOffRampEdge 877763351#0 229489595#2 229489595#3-AddedOnRampEdge 229489595#3 229489595#3-AddedOffRampEdge 229489595#4 229489593#1 229489593#3-AddedOnRampEdge 229489593#3"/>
    </vehicle>
    <vehicle id="8" depart="0.00">
        <route edges="978613905 978613909 978613908 978613907#0 978613907#1 978613917#0 978613917#1 978613918 718258596 718258596-AddedOffRampEdge 978615349#0 978615347#1 229489601-AddedOnRampEdge 229489601 229489601-AddedOffRampEdge 877763351#0 229489595#2 229489595#3-AddedOnRampEdge 229489595#3 229489595#3-AddedOffRampEdge 229489595#4 229489593#1 229489593#3-AddedOnRampEdge 229489593#3"/>
    </vehicle>
    <vehicle id="9" depart="1.00">
        <route edges="978613905 978613909 978613908 978613907#0 978613907#1 978613917#0 978613917#1 978613918 718258596 718258596-AddedOffRampEdge 978615349#0 978615347#1 229489601-AddedOnRampEdge 229489601 229489601-AddedOffRampEdge 877763351#0 229489595#2 229489595#3-AddedOnRampEdge 229489595#3 229489595#3-AddedOffRampEdge 229489595#4 229489593#1 229489593#3-AddedOnRampEdge 229489593#3"/>
    </vehicle>
    <vehicle id="10" depart="1.00">
        <route edges="978613905 978613909 978613908 978613907#0 978613907#1 978613917#0 978613917#1 978613918 718258596 718258596-AddedOffRampEdge 978615349#0 978615347#1 229489601-AddedOnRampEdge 229489601 229489601-AddedOffRampEdge 877763351#0 229489595#2 229489595#3-AddedOnRampEdge 229489595#3 229489595#3-AddedOffRampEdge 229489595#4 229489593#1 229489593#3-AddedOnRampEdge 229489593#3"/>
    </vehicle>
    <vehicle id="11" depart="1.00">
        <route edges="978613905 978613909 978613908 978613907#0 978613907#1 978613917#0 978613917#1 978613918 718258596 718258596-AddedOffRampEdge 978615349#0 978615347#1 229489601-AddedOnRampEdge 229489601 229489601-AddedOffRampEdge 877763351#0 229489595#2 229489595#3-AddedOnRampEdge 229489595#3 229489595#3-AddedOffRampEdge 229489595#4 229489593#1 229489593#3-AddedOnRampEdge 229489593#3"/>
    </vehicle>
    <vehicle id="12" depart="1.00">
        <route edges="978613905 978613909 978613908 978613907#0 978613907#1 978613917#0 978613917#1 978613918 718258596 718258596-AddedOffRampEdge 978615349#0 978615347#1 229489601-AddedOnRampEdge 229489601 229489601-AddedOffRampEdge 877763351#0 229489595#2 229489595#3-AddedOnRampEdge 229489595#3 229489595#3-AddedOffRampEdge 229489595#4 229489593#1 229489593#3-AddedOnRampEdge 229489593#3"/>
    </vehicle>
    <vehicle id="13" depart="1.00">
        <route edges="978613905 978613909 978613908 978613907#0 978613907#1 978613917#0 978613917#1 978613918 718258596 718258596-AddedOffRampEdge 978615349#0 978615347#1 229489601-AddedOnRampEdge 229489601 229489601-AddedOffRampEdge 877763351#0 229489595#2 229489595#3-AddedOnRampEdge 229489595#3 229489595#3-AddedOffRampEdge 229489595#4 229489593#1 229489593#3-AddedOnRampEdge 229489593#3"/>
    </vehicle>
    <vehicle id="14" depart="1.00">
        <route edges="978613905 978613909 978613908 978613907#0 978613907#1 978613917#0 978613917#1 978613918 718258596 718258596-AddedOffRampEdge 978615349#0 978615347#1 229489601-AddedOnRampEdge 229489601 229489601-AddedOffRampEdge 877763351#0 229489595#2 229489595#3-AddedOnRampEdge 229489595#3 229489595#3-AddedOffRampEdge 229489595#4 229489593#1 229489593#3-AddedOnRampEdge 229489593#3"/>
    </vehicle>
    <vehicle id="15" depart="1.00">
        <route edges="978613905 978613909 978613908 978613907#0 978613907#1 978613917#0 978613917#1 978613918 718258596 718258596-AddedOffRampEdge 978615349#0 978615347#1 229489601-AddedOnRampEdge 229489601 229489601-AddedOffRampEdge 877763351#0 229489595#2 229489595#3-AddedOnRampEdge 229489595#3 229489595#3-AddedOffRampEdge 229489595#4 229489593#1 229489593#3-AddedOnRampEdge 229489593#3"/>
    </vehicle>
    <vehicle id="16" depart="1.00">
        <route edges="978613905 978613909 978613908 978613907#0 978613907#1 978613917#0 978613917#1 978613918 718258596 718258596-AddedOffRampEdge 978615349#0 978615347#1 229489601-AddedOnRampEdge 229489601 229489601-AddedOffRampEdge 877763351#0 229489595#2 229489595#3-AddedOnRampEdge 229489595#3 229489595#3-AddedOffRampEdge 229489595#4 229489593#1 229489593#3-AddedOnRampEdge 229489593#3"/>
    </vehicle>
    <vehicle id="17" depart="1.00">
        <route edges="978613905 978613909 978613908 978613907#0 978613907#1 978613917#0 978613917#1 978613918 718258596 718258596-AddedOffRampEdge 978615349#0 978615347#1 229489601-AddedOnRampEdge 229489601 229489601-AddedOffRampEdge 877763351#0 229489595#2 229489595#3-AddedOnRampEdge 229489595#3 229489595#3-AddedOffRampEdge 229489595#4 229489593#1 229489593#3-AddedOnRampEdge 229489593#3"/>
    </vehicle>
    <vehicle id="18" depart="2.00">
        <route edges="978613905 978613909 978613908 978613907#0 978613907#1 978613917#0 978613917#1 978613918 718258596 718258596-AddedOffRampEdge 978615349#0 978615347#1 229489601-AddedOnRampEdge 229489601 229489601-AddedOffRampEdge 877763351#0 229489595#2 229489595#3-AddedOnRampEdge 229489595#3 229489595#3-AddedOffRampEdge 229489595#4 229489593#1 229489593#3-AddedOnRampEdge 229489593#3"/>
    </vehicle>
    <vehicle id="19" depart="2.00">
        <route edges="978613905 978613909 978613908 978613907#0 978613907#1 978613917#0 978613917#1 978613918 718258596 718258596-AddedOffRampEdge 978615349#0 978615347#1 229489601-AddedOnRampEdge 229489601 229489601-AddedOffRampEdge 877763351#0 229489595#2 229489595#3-AddedOnRampEdge 229489595#3 229489595#3-AddedOffRampEdge 229489595#4 229489593#1 229489593#3-AddedOnRampEdge 229489593#3"/>
    </vehicle>
    <vehicle id="20" depart="2.00">
        <route edges="978613905 978613909 978613908 978613907#0 978613907#1 978613917#0 978613917#1 978613918 718258596 718258596-AddedOffRampEdge 978615349#0 978615347#1 229489601-AddedOnRampEdge 229489601 229489601-AddedOffRampEdge 877763351#0 229489595#2 229489595#3-AddedOnRampEdge 229489595#3 229489595#3-AddedOffRampEdge 229489595#4 229489593#1 229489593#3-AddedOnRampEdge 229489593#3"/>
    </vehicle>
    <vehicle id="21" depart="2.00">
        <route edges="978613905 978613909 978613908 978613907#0 978613907#1 978613917#0 978613917#1 978613918 718258596 718258596-AddedOffRampEdge 978615349#0 978615347#1 229489601-AddedOnRampEdge 229489601 229489601-AddedOffRampEdge 877763351#0 229489595#2 229489595#3-AddedOnRampEdge 229489595#3 229489595#3-AddedOffRampEdge 229489595#4 229489593#1 229489593#3-AddedOnRampEdge 229489593#3"/>
    </vehicle>
    <vehicle id="22" depart="2.00">
        <route edges="978613905 978613909 978613908 978613907#0 978613907#1 978613917#0 978613917#1 978613918 718258596 718258596-AddedOffRampEdge 978615349#0 978615347#1 229489601-AddedOnRampEdge 229489601 229489601-AddedOffRampEdge 877763351#0 229489595#2 229489595#3-AddedOnRampEdge 229489595#3 229489595#3-AddedOffRampEdge 229489595#4 229489593#1 229489593#3-AddedOnRampEdge 229489593#3"/>
    </vehicle>
    <vehicle id="23" depart="2.00">
        <route edges="978613905 978613909 978613908 978613907#0 978613907#1 978613917#0 978613917#1 978613918 718258596 718258596-AddedOffRampEdge 978615349#0 978615347#1 229489601-AddedOnRampEdge 229489601 229489601-AddedOffRampEdge 877763351#0 229489595#2 229489595#3-AddedOnRampEdge 229489595#3 229489595#3-AddedOffRampEdge 229489595#4 229489593#1 229489593#3-AddedOnRampEdge 229489593#3"/>
    </vehicle>
    <vehicle id="24" depart="2.00">
        <route edges="978613905 978613909 978613908 978613907#0 978613907#1 978613917#0 978613917#1 978613918 718258596 718258596-AddedOffRampEdge 978615349#0 978615347#1 229489601-AddedOnRampEdge 229489601 229489601-AddedOffRampEdge 877763351#0 229489595#2 229489595#3-AddedOnRampEdge 229489595#3 229489595#3-AddedOffRampEdge 229489595#4 229489593#1 229489593#3-AddedOnRampEdge 229489593#3"/>
    </vehicle>
    <vehicle id="25" depart="3.00">
        <route edges="978613905 978613909 978613908 978613907#0 978613907#1 978613917#0 978613917#1 978613918 718258596 718258596-AddedOffRampEdge 978615349#0 978615347#1 229489601-AddedOnRampEdge 229489601 229489601-AddedOffRampEdge 877763351#0 229489595#2 229489595#3-AddedOnRampEdge 229489595#3 229489595#3-AddedOffRampEdge 229489595#4 229489593#1 229489593#3-AddedOnRampEdge 229489593#3"/>
    </vehicle>
    <vehicle id="26" depart="3.00">
        <route edges="978613905 978613909 978613908 978613907#0 978613907#1 978613917#0 978613917#1 978613918 718258596 718258596-AddedOffRampEdge 978615349#0 978615347#1 229489601-AddedOnRampEdge 229489601 229489601-AddedOffRampEdge 877763351#0 229489595#2 229489595#3-AddedOnRampEdge 229489595#3 229489595#3-AddedOffRampEdge 229489595#4 229489593#1 229489593#3-AddedOnRampEdge 229489593#3"/>
    </vehicle>
    <vehicle id="27" depart="3.00">
        <route edges="978613905 978613909 978613908 978613907#0 978613907#1 978613917#0 978613917#1 978613918 718258596 718258596-AddedOffRampEdge 978615349#0 978615347#1 229489601-AddedOnRampEdge 229489601 229489601-AddedOffRampEdge 877763351#0 229489595#2 229489595#3-AddedOnRampEdge 229489595#3 229489595#3-AddedOffRampEdge 229489595#4 229489593#1 229489593#3-AddedOnRampEdge 229489593#3"/>
    </vehicle>
    <vehicle id="28" depart="3.00">
        <route edges="978613905 978613909 978613908 978613907#0 978613907#1 978613917#0 978613917#1 978613918 718258596 718258596-AddedOffRampEdge 978615349#0 978615347#1 229489601-AddedOnRampEdge 229489601 229489601-AddedOffRampEdge 877763351#0 229489595#2 229489595#3-AddedOnRampEdge 229489595#3 229489595#3-AddedOffRampEdge 229489595#4 229489593#1 229489593#3-AddedOnRampEdge 229489593#3"/>
    </vehicle>
    <vehicle id="29" depart="3.00">
        <route edges="978613905 978613909 978613908 978613907#0 978613907#1 978613917#0 978613917#1 978613918 718258596 718258596-AddedOffRampEdge 978615349#0 978615347#1 229489601-AddedOnRampEdge 229489601 229489601-AddedOffRampEdge 877763351#0 229489595#2 229489595#3-AddedOnRampEdge 229489595#3 229489595#3-AddedOffRampEdge 229489595#4 229489593#1 229489593#3-AddedOnRampEdge 229489593#3"/>
    </vehicle>
    <vehicle id="30" depart="3.00">
        <route edges="978613905 978613909 978613908 978613907#0 978613907#1 978613917#0 978613917#1 978613918 718258596 718258596-AddedOffRampEdge 978615349#0 978615347#1 229489601-AddedOnRampEdge 229489601 229489601-AddedOffRampEdge 877763351#0 229489595#2 229489595#3-AddedOnRampEdge 229489595#3 229489595#3-AddedOffRampEdge 229489595#4 229489593#1 229489593#3-AddedOnRampEdge 229489593#3"/>
    </vehicle>
    <vehicle id="31" depart="3.00">
        <route edges="978613905 978613909 978613908 978613907#0 978613907#1 978613917#0 978613917#1 978613918 718258596 718258596-AddedOffRampEdge 978615349#0 978615347#1 229489601-AddedOnRampEdge 229489601 229489601-AddedOffRampEdge 877763351#0 229489595#2 229489595#3-AddedOnRampEdge 229489595#3 229489595#3-AddedOffRampEdge 229489595#4 229489593#1 229489593#3-AddedOnRampEdge 229489593#3"/>
    </vehicle>
    <vehicle id="32" depart="3.00">
        <route edges="978613905 978613909 978613908 978613907#0 978613907#1 978613917#0 978613917#1 978613918 718258596 718258596-AddedOffRampEdge 978615349#0 978615347#1 229489601-AddedOnRampEdge 229489601 229489601-AddedOffRampEdge 877763351#0 229489595#2 229489595#3-AddedOnRampEdge 229489595#3 229489595#3-AddedOffRampEdge 229489595#4 229489593#1 229489593#3-AddedOnRampEdge 229489593#3"/>
    </vehicle>
    <vehicle id="33" depart="3.00">
        <route edges="978613905 978613909 978613908 978613907#0 978613907#1 978613917#0 978613917#1 978613918 718258596 718258596-AddedOffRampEdge 978615349#0 978615347#1 229489601-AddedOnRampEdge 229489601 229489601-AddedOffRampEdge 877763351#0 229489595#2 229489595#3-AddedOnRampEdge 229489595#3 229489595#3-AddedOffRampEdge 229489595#4 229489593#1 229489593#3-AddedOnRampEdge 229489593#3"/>
    </vehicle>
    <vehicle id="34" depart="4.00">
        <route edges="978613905 978613909 978613908 978613907#0 978613907#1 978613917#0 978613917#1 978613918 718258596 718258596-AddedOffRampEdge 978615349#0 978615347#1 229489601-AddedOnRampEdge 229489601 229489601-AddedOffRampEdge 877763351#0 229489595#2 229489595#3-AddedOnRampEdge 229489595#3 229489595#3-AddedOffRampEdge 229489595#4 229489593#1 229489593#3-AddedOnRampEdge 229489593#3"/>
    </vehicle>
    <vehicle id="35" depart="4.00">
        <route edges="978613905 978613909 978613908 978613907#0 978613907#1 978613917#0 978613917#1 978613918 718258596 718258596-AddedOffRampEdge 978615349#0 978615347#1 229489601-AddedOnRampEdge 229489601 229489601-AddedOffRampEdge 877763351#0 229489595#2 229489595#3-AddedOnRampEdge 229489595#3 229489595#3-AddedOffRampEdge 229489595#4 229489593#1 229489593#3-AddedOnRampEdge 229489593#3"/>
    </vehicle>
    <vehicle id="36" depart="4.00">
        <route edges="978613905 978613909 978613908 978613907#0 978613907#1 978613917#0 978613917#1 978613918 718258596 718258596-AddedOffRampEdge 978615349#0 978615347#1 229489601-AddedOnRampEdge 229489601 229489601-AddedOffRampEdge 877763351#0 229489595#2 229489595#3-AddedOnRampEdge 229489595#3 229489595#3-AddedOffRampEdge 229489595#4 229489593#1 229489593#3-AddedOnRampEdge 229489593#3"/>
    </vehicle>
    <vehicle id="37" depart="4.00">
        <route edges="978613905 978613909 978613908 978613907#0 978613907#1 978613917#0 978613917#1 978613918 718258596 718258596-AddedOffRampEdge 978615349#0 978615347#1 229489601-AddedOnRampEdge 229489601 229489601-AddedOffRampEdge 877763351#0 229489595#2 229489595#3-AddedOnRampEdge 229489595#3 229489595#3-AddedOffRampEdge 229489595#4 229489593#1 229489593#3-AddedOnRampEdge 229489593#3"/>
    </vehicle>
    <vehicle id="38" depart="4.00">
        <route edges="978613905 978613909 978613908 978613907#0 978613907#1 978613917#0 978613917#1 978613918 718258596 718258596-AddedOffRampEdge 978615349#0 978615347#1 229489601-AddedOnRampEdge 229489601 229489601-AddedOffRampEdge 877763351#0 229489595#2 229489595#3-AddedOnRampEdge 229489595#3 229489595#3-AddedOffRampEdge 229489595#4 229489593#1 229489593#3-AddedOnRampEdge 229489593#3"/>
    </vehicle>
    <vehicle id="39" depart="4.00">
        <route edges="978613905 978613909 978613908 978613907#0 978613907#1 978613917#0 978613917#1 978613918 718258596 718258596-AddedOffRampEdge 978615349#0 978615347#1 229489601-AddedOnRampEdge 229489601 229489601-AddedOffRampEdge 877763351#0 229489595#2 229489595#3-AddedOnRampEdge 229489595#3 229489595#3-AddedOffRampEdge 229489595#4 229489593#1 229489593#3-AddedOnRampEdge 229489593#3"/>
    </vehicle>
    <vehicle id="40" depart="4.00">
        <route edges="978613905 978613909 978613908 978613907#0 978613907#1 978613917#0 978613917#1 978613918 718258596 718258596-AddedOffRampEdge 978615349#0 978615347#1 229489601-AddedOnRampEdge 229489601 229489601-AddedOffRampEdge 877763351#0 229489595#2 229489595#3-AddedOnRampEdge 229489595#3 229489595#3-AddedOffRampEdge 229489595#4 229489593#1 229489593#3-AddedOnRampEdge 229489593#3"/>
    </vehicle>
    <vehicle id="41" depart="5.00">
        <route edges="978613905 978613909 978613908 978613907#0 978613907#1 978613917#0 978613917#1 978613918 718258596 718258596-AddedOffRampEdge 978615349#0 978615347#1 229489601-AddedOnRampEdge 229489601 229489601-AddedOffRampEdge 877763351#0 229489595#2 229489595#3-AddedOnRampEdge 229489595#3 229489595#3-AddedOffRampEdge 229489595#4 229489593#1 229489593#3-AddedOnRampEdge 229489593#3"/>
    </vehicle>
    <vehicle id="42" depart="5.00">
        <route edges="978613905 978613909 978613908 978613907#0 978613907#1 978613917#0 978613917#1 978613918 718258596 718258596-AddedOffRampEdge 978615349#0 978615347#1 229489601-AddedOnRampEdge 229489601 229489601-AddedOffRampEdge 877763351#0 229489595#2 229489595#3-AddedOnRampEdge 229489595#3 229489595#3-AddedOffRampEdge 229489595#4 229489593#1 229489593#3-AddedOnRampEdge 229489593#3"/>
    </vehicle>
    <vehicle id="43" depart="5.00">
        <route edges="978613905 978613909 978613908 978613907#0 978613907#1 978613917#0 978613917#1 978613918 718258596 718258596-AddedOffRampEdge 978615349#0 978615347#1 229489601-AddedOnRampEdge 229489601 229489601-AddedOffRampEdge 877763351#0 229489595#2 229489595#3-AddedOnRampEdge 229489595#3 229489595#3-AddedOffRampEdge 229489595#4 229489593#1 229489593#3-AddedOnRampEdge 229489593#3"/>
    </vehicle>
    <vehicle id="44" depart="5.00">
        <route edges="978613905 978613909 978613908 978613907#0 978613907#1 978613917#0 978613917#1 978613918 718258596 718258596-AddedOffRampEdge 978615349#0 978615347#1 229489601-AddedOnRampEdge 229489601 229489601-AddedOffRampEdge 877763351#0 229489595#2 229489595#3-AddedOnRampEdge 229489595#3 229489595#3-AddedOffRampEdge 229489595#4 229489593#1 229489593#3-AddedOnRampEdge 229489593#3"/>
    </vehicle>
    <vehicle id="45" depart="5.00">
        <route edges="978613905 978613909 978613908 978613907#0 978613907#1 978613917#0 978613917#1 978613918 718258596 718258596-AddedOffRampEdge 978615349#0 978615347#1 229489601-AddedOnRampEdge 229489601 229489601-AddedOffRampEdge 877763351#0 229489595#2 229489595#3-AddedOnRampEdge 229489595#3 229489595#3-AddedOffRampEdge 229489595#4 229489593#1 229489593#3-AddedOnRampEdge 229489593#3"/>
    </vehicle>
    <vehicle id="46" depart="5.00">
        <route edges="978613905 978613909 978613908 978613907#0 978613907#1 978613917#0 978613917#1 978613918 718258596 718258596-AddedOffRampEdge 978615349#0 978615347#1 229489601-AddedOnRampEdge 229489601 229489601-AddedOffRampEdge 877763351#0 229489595#2 229489595#3-AddedOnRampEdge 229489595#3 229489595#3-AddedOffRampEdge 229489595#4 229489593#1 229489593#3-AddedOnRampEdge 229489593#3"/>
    </vehicle>
    <vehicle id="47" depart="5.00">
        <route edges="978613905 978613909 978613908 978613907#0 978613907#1 978613917#0 978613917#1 978613918 718258596 718258596-AddedOffRampEdge 978615349#0 978615347#1 229489601-AddedOnRampEdge 229489601 229489601-AddedOffRampEdge 877763351#0 229489595#2 229489595#3-AddedOnRampEdge 229489595#3 229489595#3-AddedOffRampEdge 229489595#4 229489593#1 229489593#3-AddedOnRampEdge 229489593#3"/>
    </vehicle>
    <vehicle id="48" depart="6.00">
        <route edges="978613905 978613909 978613908 978613907#0 978613907#1 978613917#0 978613917#1 978613918 718258596 718258596-AddedOffRampEdge 978615349#0 978615347#1 229489601-AddedOnRampEdge 229489601 229489601-AddedOffRampEdge 877763351#0 229489595#2 229489595#3-AddedOnRampEdge 229489595#3 229489595#3-AddedOffRampEdge 229489595#4 229489593#1 229489593#3-AddedOnRampEdge 229489593#3"/>
    </vehicle>
    <vehicle id="49" depart="6.00">
        <route edges="978613905 978613909 978613908 978613907#0 978613907#1 978613917#0 978613917#1 978613918 718258596 718258596-AddedOffRampEdge 978615349#0 978615347#1 229489601-AddedOnRampEdge 229489601 229489601-AddedOffRampEdge 877763351#0 229489595#2 229489595#3-AddedOnRampEdge 229489595#3 229489595#3-AddedOffRampEdge 229489595#4 229489593#1 229489593#3-AddedOnRampEdge 229489593#3"/>
    </vehicle>
    <vehicle id="50" depart="6.00">
        <route edges="978613905 978613909 978613908 978613907#0 978613907#1 978613917#0 978613917#1 978613918 718258596 718258596-AddedOffRampEdge 978615349#0 978615347#1 229489601-AddedOnRampEdge 229489601 229489601-AddedOffRampEdge 877763351#0 229489595#2 229489595#3-AddedOnRampEdge 229489595#3 229489595#3-AddedOffRampEdge 229489595#4 229489593#1 229489593#3-AddedOnRampEdge 229489593#3"/>
    </vehicle>
    <vehicle id="51" depart="6.00">
        <route edges="978613905 978613909 978613908 978613907#0 978613907#1 978613917#0 978613917#1 978613918 718258596 718258596-AddedOffRampEdge 978615349#0 978615347#1 229489601-AddedOnRampEdge 229489601 229489601-AddedOffRampEdge 877763351#0 229489595#2 229489595#3-AddedOnRampEdge 229489595#3 229489595#3-AddedOffRampEdge 229489595#4 229489593#1 229489593#3-AddedOnRampEdge 229489593#3"/>
    </vehicle>
    <vehicle id="52" depart="6.00">
        <route edges="978613905 978613909 978613908 978613907#0 978613907#1 978613917#0 978613917#1 978613918 718258596 718258596-AddedOffRampEdge 978615349#0 978615347#1 229489601-AddedOnRampEdge 229489601 229489601-AddedOffRampEdge 877763351#0 229489595#2 229489595#3-AddedOnRampEdge 229489595#3 229489595#3-AddedOffRampEdge 229489595#4 229489593#1 229489593#3-AddedOnRampEdge 229489593#3"/>
    </vehicle>
    <vehicle id="53" depart="6.00">
        <route edges="978613905 978613909 978613908 978613907#0 978613907#1 978613917#0 978613917#1 978613918 718258596 718258596-AddedOffRampEdge 978615349#0 978615347#1 229489601-AddedOnRampEdge 229489601 229489601-AddedOffRampEdge 877763351#0 229489595#2 229489595#3-AddedOnRampEdge 229489595#3 229489595#3-AddedOffRampEdge 229489595#4 229489593#1 229489593#3-AddedOnRampEdge 229489593#3"/>
    </vehicle>
    <vehicle id="54" depart="6.00">
        <route edges="978613905 978613909 978613908 978613907#0 978613907#1 978613917#0 978613917#1 978613918 718258596 718258596-AddedOffRampEdge 978615349#0 978615347#1 229489601-AddedOnRampEdge 229489601 229489601-AddedOffRampEdge 877763351#0 229489595#2 229489595#3-AddedOnRampEdge 229489595#3 229489595#3-AddedOffRampEdge 229489595#4 229489593#1 229489593#3-AddedOnRampEdge 229489593#3"/>
    </vehicle>
    <vehicle id="55" depart="6.00">
        <route edges="978613905 978613909 978613908 978613907#0 978613907#1 978613917#0 978613917#1 978613918 718258596 718258596-AddedOffRampEdge 978615349#0 978615347#1 229489601-AddedOnRampEdge 229489601 229489601-AddedOffRampEdge 877763351#0 229489595#2 229489595#3-AddedOnRampEdge 229489595#3 229489595#3-AddedOffRampEdge 229489595#4 229489593#1 229489593#3-AddedOnRampEdge 229489593#3"/>
    </vehicle>
    <vehicle id="56" depart="7.00">
        <route edges="978613905 978613909 978613908 978613907#0 978613907#1 978613917#0 978613917#1 978613918 718258596 718258596-AddedOffRampEdge 978615349#0 978615347#1 229489601-AddedOnRampEdge 229489601 229489601-AddedOffRampEdge 877763351#0 229489595#2 229489595#3-AddedOnRampEdge 229489595#3 229489595#3-AddedOffRampEdge 229489595#4 229489593#1 229489593#3-AddedOnRampEdge 229489593#3"/>
    </vehicle>
    <vehicle id="57" depart="7.00">
        <route edges="978613905 978613909 978613908 978613907#0 978613907#1 978613917#0 978613917#1 978613918 718258596 718258596-AddedOffRampEdge 978615349#0 978615347#1 229489601-AddedOnRampEdge 229489601 229489601-AddedOffRampEdge 877763351#0 229489595#2 229489595#3-AddedOnRampEdge 229489595#3 229489595#3-AddedOffRampEdge 229489595#4 229489593#1 229489593#3-AddedOnRampEdge 229489593#3"/>
    </vehicle>
    <vehicle id="58" depart="7.00">
        <route edges="978613905 978613909 978613908 978613907#0 978613907#1 978613917#0 978613917#1 978613918 718258596 718258596-AddedOffRampEdge 978615349#0 978615347#1 229489601-AddedOnRampEdge 229489601 229489601-AddedOffRampEdge 877763351#0 229489595#2 229489595#3-AddedOnRampEdge 229489595#3 229489595#3-AddedOffRampEdge 229489595#4 229489593#1 229489593#3-AddedOnRampEdge 229489593#3"/>
    </vehicle>
    <vehicle id="59" depart="7.00">
        <route edges="978613905 978613909 978613908 978613907#0 978613907#1 978613917#0 978613917#1 978613918 718258596 718258596-AddedOffRampEdge 978615349#0 978615347#1 229489601-AddedOnRampEdge 229489601 229489601-AddedOffRampEdge 877763351#0 229489595#2 229489595#3-AddedOnRampEdge 229489595#3 229489595#3-AddedOffRampEdge 229489595#4 229489593#1 229489593#3-AddedOnRampEdge 229489593#3"/>
    </vehicle>
    <vehicle id="60" depart="7.00">
        <route edges="978613905 978613909 978613908 978613907#0 978613907#1 978613917#0 978613917#1 978613918 718258596 718258596-AddedOffRampEdge 978615349#0 978615347#1 229489601-AddedOnRampEdge 229489601 229489601-AddedOffRampEdge 877763351#0 229489595#2 229489595#3-AddedOnRampEdge 229489595#3 229489595#3-AddedOffRampEdge 229489595#4 229489593#1 229489593#3-AddedOnRampEdge 229489593#3"/>
    </vehicle>
    <vehicle id="61" depart="7.00">
        <route edges="978613905 978613909 978613908 978613907#0 978613907#1 978613917#0 978613917#1 978613918 718258596 718258596-AddedOffRampEdge 978615349#0 978615347#1 229489601-AddedOnRampEdge 229489601 229489601-AddedOffRampEdge 877763351#0 229489595#2 229489595#3-AddedOnRampEdge 229489595#3 229489595#3-AddedOffRampEdge 229489595#4 229489593#1 229489593#3-AddedOnRampEdge 229489593#3"/>
    </vehicle>
    <vehicle id="62" depart="7.00">
        <route edges="978613905 978613909 978613908 978613907#0 978613907#1 978613917#0 978613917#1 978613918 718258596 718258596-AddedOffRampEdge 978615349#0 978615347#1 229489601-AddedOnRampEdge 229489601 229489601-AddedOffRampEdge 877763351#0 229489595#2 229489595#3-AddedOnRampEdge 229489595#3 229489595#3-AddedOffRampEdge 229489595#4 229489593#1 229489593#3-AddedOnRampEdge 229489593#3"/>
    </vehicle>
    <vehicle id="63" depart="8.00">
        <route edges="978613905 978613909 978613908 978613907#0 978613907#1 978613917#0 978613917#1 978613918 718258596 718258596-AddedOffRampEdge 978615349#0 978615347#1 229489601-AddedOnRampEdge 229489601 229489601-AddedOffRampEdge 877763351#0 229489595#2 229489595#3-AddedOnRampEdge 229489595#3 229489595#3-AddedOffRampEdge 229489595#4 229489593#1 229489593#3-AddedOnRampEdge 229489593#3"/>
    </vehicle>
    <vehicle id="64" depart="8.00">
        <route edges="978613905 978613909 978613908 978613907#0 978613907#1 978613917#0 978613917#1 978613918 718258596 718258596-AddedOffRampEdge 978615349#0 978615347#1 229489601-AddedOnRampEdge 229489601 229489601-AddedOffRampEdge 877763351#0 229489595#2 229489595#3-AddedOnRampEdge 229489595#3 229489595#3-AddedOffRampEdge 229489595#4 229489593#1 229489593#3-AddedOnRampEdge 229489593#3"/>
    </vehicle>
    <vehicle id="65" depart="8.00">