<?xml version="1.0" encoding="UTF-8"?>

<!-- generated on 2025-01-08 15:19:20 by Eclipse SUMO netedit Version 1.21.0
<neteditConfiguration xmlns:xsi="http://www.w3.org/2001/XMLSchema-instance" xsi:noNamespaceSchemaLocation="http://sumo.dlr.de/xsd/neteditConfiguration.xsd">

    <input>
        <sumo-net-file value="D:\Code\MixedTrafficControl_IROS-main\MixedTrafficControl_Colorado\sumo_networks\colorado\colorado_oneIntersection_shorter.net.xml"/>
    </input>

    <output>
        <output-file value="D:\Code\MixedTrafficControl_IROS-main\MixedTrafficControl_Colorado\sumo_networks\colorado\colorado_oneIntersection_shorter.net.xml"/>
        <output.street-names value="true"/>
    </output>

    <processing>
        <geometry.min-radius.fix.railways value="false"/>
        <geometry.max-grade.fix value="false"/>
        <offset.disable-normalization value="true"/>
        <lefthand value="0"/>
    </processing>

    <junctions>
        <no-turnarounds value="true"/>
        <junctions.corner-detail value="5"/>
        <junctions.limit-turn-speed value="5.50"/>
        <rectangular-lane-cut value="0"/>
    </junctions>

    <pedestrian>
        <walkingareas value="0"/>
    </pedestrian>

</neteditConfiguration>
-->

<net version="1.20" junctionCornerDetail="5" limitTurnSpeed="5.50" xmlns:xsi="http://www.w3.org/2001/XMLSchema-instance" xsi:noNamespaceSchemaLocation="http://sumo.dlr.de/xsd/net_file.xsd">

    <location netOffset="-522669.76,-4302365.51" convBoundary="1472.63,4415.92,1805.50,4744.90" origBoundary="-104.738619,38.869717,-104.672604,38.940348" projParameter="+proj=utm +zone=13 +ellps=WGS84 +datum=WGS84 +units=m +no_defs"/>

    <type id="highway.secondary" priority="11" numLanes="1" speed="27.78" disallow="tram rail_urban rail rail_electric rail_fast ship" oneway="0"/>
    <type id="highway.trunk" priority="13" numLanes="2" speed="27.78" disallow="pedestrian bicycle tram rail_urban rail rail_electric rail_fast ship" oneway="0"/>
    <type id="highway.trunk_link" priority="8" numLanes="1" speed="22.22" disallow="pedestrian bicycle tram rail_urban rail rail_electric rail_fast ship" oneway="0"/>

    <edge id=":2052409428_0" function="internal">
        <lane id=":2052409428_0_0" index="0" disallow="pedestrian bicycle tram rail_urban rail rail_electric rail_fast ship cable_car subway" speed="20.05" length="9.20" shape="1700.51,4591.82 1697.82,4591.68 1696.01,4591.15 1694.21,4590.54 1691.52,4590.14"/>
    </edge>
    <edge id=":2052409428_1" function="internal">
        <lane id=":2052409428_1_0" index="0" disallow="tram rail_urban rail rail_electric rail_fast ship cable_car subway" speed="17.88" length="8.54" shape="1700.51,4591.82 1697.82,4591.68 1696.01,4591.19 1694.19,4590.67 1691.50,4590.43"/>
        <lane id=":2052409428_1_1" index="1" disallow="tram rail_urban rail rail_electric rail_fast ship cable_car subway" speed="17.88" length="8.54" shape="1700.37,4588.62 1697.78,4588.48 1696.03,4587.99 1694.28,4587.47 1691.68,4587.23"/>
        <lane id=":2052409428_1_2" index="2" disallow="tram rail_urban rail rail_electric rail_fast ship cable_car subway" speed="17.88" length="8.54" shape="1700.23,4585.43 1697.73,4585.28 1696.04,4584.79 1694.36,4584.27 1691.85,4584.03"/>
        <lane id=":2052409428_1_3" index="3" disallow="tram rail_urban rail rail_electric rail_fast ship cable_car subway" speed="17.88" length="8.54" shape="1700.09,4582.23 1697.68,4582.08 1696.06,4581.59 1694.44,4581.06 1692.03,4580.83"/>
        <lane id=":2052409428_1_4" index="4" disallow="tram rail_urban rail rail_electric rail_fast ship cable_car subway" speed="17.88" length="8.54" shape="1699.95,4579.03 1697.63,4578.88 1696.08,4578.39 1694.52,4577.86 1692.20,4577.63"/>
    </edge>
    <edge id=":2052409866_0" function="internal">
        <lane id=":2052409866_0_0" index="0" disallow="pedestrian bicycle tram rail_urban rail rail_electric rail_fast ship cable_car subway" speed="22.22" length="0.10" shape="1610.36,4547.76 1610.36,4547.76"/>
    </edge>
    <edge id=":2052409945_0" function="internal">
        <lane id=":2052409945_0_0" index="0" disallow="pedestrian bicycle tram rail_urban rail rail_electric rail_fast ship cable_car subway" speed="22.22" length="0.21" shape="1666.30,4547.26 1666.34,4547.31 1666.37,4547.34 1666.40,4547.37 1666.45,4547.41"/>
    </edge>
    <edge id=":2052410056_0" function="internal">
        <lane id=":2052410056_0_0" index="0" disallow="pedestrian bicycle tram rail_urban rail rail_electric rail_fast ship cable_car subway" speed="24.59" length="3.07" shape="1650.47,4643.32 1650.49,4646.38"/>
        <lane id=":2052410056_0_1" index="1" disallow="pedestrian bicycle tram rail_urban rail rail_electric rail_fast ship cable_car subway" speed="24.59" length="3.07" shape="1647.27,4643.33 1647.29,4646.40"/>
        <lane id=":2052410056_0_2" index="2" disallow="pedestrian bicycle tram rail_urban rail rail_electric rail_fast ship cable_car subway" speed="24.59" length="3.07" shape="1644.07,4643.35 1644.09,4646.42"/>
    </edge>
    <edge id=":2052410056_3" function="internal">
        <lane id=":2052410056_3_0" index="0" disallow="pedestrian bicycle tram rail_urban rail rail_electric rail_fast ship cable_car subway" speed="23.41" length="3.07" shape="1653.65,4643.30 1653.69,4646.37"/>
    </edge>
    <edge id=":2052410216_0" function="internal">
        <lane id=":2052410216_0_0" index="0" disallow="pedestrian bicycle tram rail_urban rail rail_electric rail_fast ship cable_car subway" speed="20.05" length="25.21" shape="1681.22,4556.35 1685.34,4557.55 1690.76,4558.49 1697.65,4558.97 1706.16,4558.81"/>
    </edge>
    <edge id=":2052410216_1" function="internal">
        <lane id=":2052410216_1_0" index="0" disallow="tram rail_urban rail rail_electric rail_fast ship cable_car subway" speed="17.88" length="25.33" shape="1680.93,4560.94 1706.16,4558.81"/>
        <lane id=":2052410216_1_1" index="1" disallow="tram rail_urban rail rail_electric rail_fast ship cable_car subway" speed="17.88" length="25.33" shape="1681.12,4564.14 1706.35,4562.00"/>
        <lane id=":2052410216_1_2" index="2" disallow="tram rail_urban rail rail_electric rail_fast ship cable_car subway" speed="17.88" length="25.33" shape="1681.30,4567.34 1706.54,4565.19"/>
    </edge>
    <edge id=":455859464_0" function="internal">
        <lane id=":455859464_0_0" index="0" disallow="pedestrian bicycle tram rail_urban rail rail_electric rail_fast ship cable_car subway" speed="23.41" length="3.40" shape="1621.14,4517.97 1621.03,4516.96 1620.95,4516.28 1620.92,4515.58 1620.91,4514.57"/>
    </edge>
    <edge id=":455859464_1" function="internal">
        <lane id=":455859464_1_0" index="0" disallow="pedestrian bicycle tram rail_urban rail rail_electric rail_fast ship cable_car subway" speed="24.59" length="3.40" shape="1624.11,4517.98 1624.11,4514.58"/>
        <lane id=":455859464_1_1" index="1" disallow="pedestrian bicycle tram rail_urban rail rail_electric rail_fast ship cable_car subway" speed="24.59" length="3.40" shape="1627.31,4517.98 1627.31,4514.58"/>
        <lane id=":455859464_1_2" index="2" disallow="pedestrian bicycle tram rail_urban rail rail_electric rail_fast ship cable_car subway" speed="24.59" length="3.40" shape="1630.51,4517.99 1630.51,4514.59"/>
    </edge>
    <edge id=":455859767_0" function="internal">
        <lane id=":455859767_0_0" index="0" disallow="pedestrian bicycle tram rail_urban rail rail_electric rail_fast ship cable_car subway" speed="23.41" length="9.05" shape="1621.64,4642.95 1621.89,4633.90"/>
    </edge>
    <edge id=":455859767_1" function="internal">
        <lane id=":455859767_1_0" index="0" disallow="pedestrian bicycle tram rail_urban rail rail_electric rail_fast ship cable_car subway" speed="24.59" length="8.75" shape="1621.64,4642.95 1621.54,4633.88"/>
        <lane id=":455859767_1_1" index="1" disallow="pedestrian bicycle tram rail_urban rail rail_electric rail_fast ship cable_car subway" speed="24.59" length="8.75" shape="1624.84,4642.91 1624.74,4634.08"/>
        <lane id=":455859767_1_2" index="2" disallow="pedestrian bicycle tram rail_urban rail rail_electric rail_fast ship cable_car subway" speed="24.59" length="8.75" shape="1628.04,4642.88 1627.94,4634.28"/>
        <lane id=":455859767_1_3" index="3" disallow="pedestrian bicycle tram rail_urban rail rail_electric rail_fast ship cable_car subway" speed="24.59" length="8.75" shape="1631.24,4642.84 1631.14,4634.49"/>
        <lane id=":455859767_1_4" index="4" disallow="pedestrian bicycle tram rail_urban rail rail_electric rail_fast ship cable_car subway" speed="24.59" length="8.75" shape="1631.24,4642.84 1631.71,4640.34 1632.79,4638.76 1633.87,4637.19 1634.35,4634.69"/>
    </edge>
    <edge id=":455859771_0" function="internal">
        <lane id=":455859771_0_0" index="0" disallow="tram rail_urban rail rail_electric rail_fast ship cable_car subway" speed="17.88" length="3.34" shape="1574.50,4587.15 1571.16,4587.11"/>
        <lane id=":455859771_0_1" index="1" disallow="tram rail_urban rail rail_electric rail_fast ship cable_car subway" speed="17.88" length="3.34" shape="1574.53,4583.95 1571.19,4583.91"/>
        <lane id=":455859771_0_2" index="2" disallow="tram rail_urban rail rail_electric rail_fast ship cable_car subway" speed="17.88" length="3.34" shape="1574.57,4580.75 1571.23,4580.71"/>
    </edge>
    <edge id=":455859771_3" function="internal">
        <lane id=":455859771_3_0" index="0" disallow="pedestrian bicycle tram rail_urban rail rail_electric rail_fast ship cable_car subway" speed="20.05" length="3.34" shape="1574.46,4590.20 1571.12,4590.31"/>
    </edge>
    <edge id=":539653860_0" function="internal">
        <lane id=":539653860_0_0" index="0" disallow="pedestrian bicycle tram rail_urban rail rail_electric rail_fast ship cable_car subway" speed="23.41" length="7.71" shape="1653.15,4512.80 1653.26,4520.51"/>
    </edge>
    <edge id=":539653860_1" function="internal">
        <lane id=":539653860_1_0" index="0" disallow="pedestrian bicycle tram rail_urban rail rail_electric rail_fast ship cable_car subway" speed="24.59" length="8.14" shape="1653.15,4512.80 1653.10,4520.51"/>
        <lane id=":539653860_1_1" index="1" disallow="pedestrian bicycle tram rail_urban rail rail_electric rail_fast ship cable_car subway" speed="24.59" length="8.14" shape="1649.95,4512.77 1649.90,4520.63"/>
        <lane id=":539653860_1_2" index="2" disallow="pedestrian bicycle tram rail_urban rail rail_electric rail_fast ship cable_car subway" speed="24.59" length="8.14" shape="1646.75,4512.75 1646.70,4520.74"/>
        <lane id=":539653860_1_3" index="3" disallow="pedestrian bicycle tram rail_urban rail rail_electric rail_fast ship cable_car subway" speed="24.59" length="8.14" shape="1643.55,4512.72 1643.50,4520.85"/>
        <lane id=":539653860_1_4" index="4" disallow="pedestrian bicycle tram rail_urban rail rail_electric rail_fast ship cable_car subway" speed="24.59" length="8.14" shape="1643.55,4512.72 1643.03,4515.26 1641.92,4516.84 1640.81,4518.43 1640.29,4520.96"/>
    </edge>
    <edge id=":7233779940_0" function="internal">
        <lane id=":7233779940_0_0" index="0" disallow="pedestrian bicycle tram rail_urban rail rail_electric rail_fast ship cable_car subway" speed="20.05" length="10.32" shape="1574.38,4558.80 1577.46,4558.81 1579.59,4558.94 1581.68,4559.22 1584.65,4559.67"/>
    </edge>
    <edge id=":7233779940_1" function="internal">
        <lane id=":7233779940_1_0" index="0" disallow="tram rail_urban rail rail_electric rail_fast ship cable_car subway" speed="17.88" length="9.52" shape="1574.38,4558.80 1584.80,4558.68"/>
        <lane id=":7233779940_1_1" index="1" disallow="tram rail_urban rail rail_electric rail_fast ship cable_car subway" speed="17.88" length="9.52" shape="1574.41,4562.00 1584.30,4561.89"/>
        <lane id=":7233779940_1_2" index="2" disallow="tram rail_urban rail rail_electric rail_fast ship cable_car subway" speed="17.88" length="9.52" shape="1574.44,4565.20 1583.80,4565.10"/>
        <lane id=":7233779940_1_3" index="3" disallow="tram rail_urban rail rail_electric rail_fast ship cable_car subway" speed="17.88" length="9.52" shape="1574.46,4568.40 1583.30,4568.30"/>
        <lane id=":7233779940_1_4" index="4" disallow="tram rail_urban rail rail_electric rail_fast ship cable_car subway" speed="17.88" length="9.52" shape="1574.46,4568.40 1577.02,4568.87 1578.63,4569.96 1580.25,4571.04 1582.80,4571.51"/>
    </edge>
    <edge id=":cluster_2052409422_2052409707_542824247_542824770_#2more_0" function="internal">
        <lane id=":cluster_2052409422_2052409707_542824247_542824770_#2more_0_0" index="0" disallow="pedestrian bicycle tram rail_urban rail rail_electric rail_fast ship cable_car subway" speed="7.32" length="11.48" shape="1621.10,4596.16 1620.71,4592.44 1619.64,4589.77 1617.89,4588.16 1615.46,4587.61"/>
    </edge>
    <edge id=":cluster_2052409422_2052409707_542824247_542824770_#2more_1" function="internal">
        <lane id=":cluster_2052409422_2052409707_542824247_542824770_#2more_1_0" index="0" disallow="pedestrian bicycle tram rail_urban rail rail_electric rail_fast ship cable_car subway" speed="24.59" length="43.55" shape="1624.30,4596.16 1624.06,4552.62"/>
        <lane id=":cluster_2052409422_2052409707_542824247_542824770_#2more_1_1" index="1" disallow="pedestrian bicycle tram rail_urban rail rail_electric rail_fast ship cable_car subway" speed="24.59" length="43.55" shape="1627.50,4596.17 1627.26,4552.62"/>
        <lane id=":cluster_2052409422_2052409707_542824247_542824770_#2more_1_2" index="2" disallow="pedestrian bicycle tram rail_urban rail rail_electric rail_fast ship cable_car subway" speed="24.59" length="43.55" shape="1630.71,4596.18 1630.46,4552.63"/>
    </edge>
    <edge id=":cluster_2052409422_2052409707_542824247_542824770_#2more_4" function="internal">
        <lane id=":cluster_2052409422_2052409707_542824247_542824770_#2more_4_0" index="0" disallow="pedestrian bicycle tram rail_urban rail rail_electric rail_fast ship cable_car subway" speed="13.56" length="43.20" shape="1633.91,4596.18 1635.29,4583.53 1639.82,4574.49 1647.50,4569.08 1658.33,4567.30"/>
    </edge>
    <edge id=":cluster_2052409422_2052409707_542824247_542824770_#2more_5" function="internal">
        <lane id=":cluster_2052409422_2052409707_542824247_542824770_#2more_5_0" index="0" disallow="tram rail_urban rail rail_electric rail_fast ship cable_car subway" speed="17.88" length="42.89" shape="1658.28,4590.59 1615.46,4587.61"/>
        <lane id=":cluster_2052409422_2052409707_542824247_542824770_#2more_5_1" index="1" disallow="tram rail_urban rail rail_electric rail_fast ship cable_car subway" speed="17.88" length="42.89" shape="1658.28,4587.39 1615.50,4584.41"/>
        <lane id=":cluster_2052409422_2052409707_542824247_542824770_#2more_5_2" index="2" disallow="tram rail_urban rail rail_electric rail_fast ship cable_car subway" speed="17.88" length="42.89" shape="1658.29,4584.19 1615.54,4581.21"/>
    </edge>
    <edge id=":cluster_2052409422_2052409707_542824247_542824770_#2more_8" function="internal">
        <lane id=":cluster_2052409422_2052409707_542824247_542824770_#2more_8_0" index="0" disallow="pedestrian bicycle tram rail_urban rail rail_electric rail_fast ship cable_car subway" speed="13.67" length="25.43" shape="1658.30,4580.99 1649.70,4577.82 1639.44,4570.15 1637.10,4567.61"/>
        <lane id=":cluster_2052409422_2052409707_542824247_542824770_#2more_8_1" index="1" disallow="pedestrian bicycle tram rail_urban rail rail_electric rail_fast ship cable_car subway" speed="12.98" length="20.81" shape="1658.30,4577.79 1650.20,4575.12 1641.05,4568.56 1640.36,4567.81"/>
    </edge>
    <edge id=":cluster_2052409422_2052409707_542824247_542824770_#2more_20" function="internal">
        <lane id=":cluster_2052409422_2052409707_542824247_542824770_#2more_20_0" index="0" disallow="pedestrian bicycle tram rail_urban rail rail_electric rail_fast ship cable_car subway" speed="13.67" length="18.17" shape="1637.10,4567.61 1630.86,4560.81 1627.26,4552.62"/>
    </edge>
    <edge id=":cluster_2052409422_2052409707_542824247_542824770_#2more_21" function="internal">
        <lane id=":cluster_2052409422_2052409707_542824247_542824770_#2more_21_0" index="0" disallow="pedestrian bicycle tram rail_urban rail rail_electric rail_fast ship cable_car subway" speed="12.98" length="18.41" shape="1640.36,4567.81 1633.56,4560.32 1630.46,4552.63"/>
    </edge>
    <edge id=":cluster_2052409422_2052409707_542824247_542824770_#2more_10" function="internal">
        <lane id=":cluster_2052409422_2052409707_542824247_542824770_#2more_10_0" index="0" disallow="pedestrian bicycle tram rail_urban rail rail_electric rail_fast ship cable_car subway" speed="24.59" length="43.64" shape="1652.86,4552.66 1650.21,4596.22"/>
        <lane id=":cluster_2052409422_2052409707_542824247_542824770_#2more_10_1" index="1" disallow="pedestrian bicycle tram rail_urban rail rail_electric rail_fast ship cable_car subway" speed="24.59" length="43.64" shape="1649.66,4552.65 1647.01,4596.21"/>
        <lane id=":cluster_2052409422_2052409707_542824247_542824770_#2more_10_2" index="2" disallow="pedestrian bicycle tram rail_urban rail rail_electric rail_fast ship cable_car subway" speed="24.59" length="43.64" shape="1646.46,4552.65 1643.81,4596.21"/>
    </edge>
    <edge id=":cluster_2052409422_2052409707_542824247_542824770_#2more_13" function="internal">
        <lane id=":cluster_2052409422_2052409707_542824247_542824770_#2more_13_0" index="0" disallow="pedestrian bicycle tram rail_urban rail rail_electric rail_fast ship cable_car subway" speed="14.38" length="47.94" shape="1643.26,4552.65 1641.31,4566.65 1636.04,4576.62 1627.43,4582.54 1615.50,4584.41"/>
        <lane id=":cluster_2052409422_2052409707_542824247_542824770_#2more_13_1" index="1" disallow="pedestrian bicycle tram rail_urban rail rail_electric rail_fast ship cable_car subway" speed="13.60" length="42.77" shape="1640.06,4552.64 1638.33,4565.24 1633.67,4574.20 1626.07,4579.52 1615.54,4581.21"/>
    </edge>
    <edge id=":cluster_2052409422_2052409707_542824247_542824770_#2more_15" function="internal">
        <lane id=":cluster_2052409422_2052409707_542824247_542824770_#2more_15_0" index="0" disallow="tram rail_urban rail rail_electric rail_fast ship cable_car subway" speed="17.88" length="42.65" shape="1615.79,4558.30 1658.34,4560.90"/>
        <lane id=":cluster_2052409422_2052409707_542824247_542824770_#2more_15_1" index="1" disallow="tram rail_urban rail rail_electric rail_fast ship cable_car subway" speed="17.88" length="42.65" shape="1615.76,4561.50 1658.33,4564.10"/>
        <lane id=":cluster_2052409422_2052409707_542824247_542824770_#2more_15_2" index="2" disallow="tram rail_urban rail rail_electric rail_fast ship cable_car subway" speed="17.88" length="42.65" shape="1615.72,4564.70 1658.33,4567.30"/>
    </edge>
    <edge id=":cluster_2052409422_2052409707_542824247_542824770_#2more_18" function="internal">
        <lane id=":cluster_2052409422_2052409707_542824247_542824770_#2more_18_0" index="0" disallow="pedestrian bicycle tram rail_urban rail rail_electric rail_fast ship cable_car subway" speed="13.69" length="25.34" shape="1615.69,4567.91 1624.32,4571.03 1634.66,4578.68 1636.90,4581.09"/>
        <lane id=":cluster_2052409422_2052409707_542824247_542824770_#2more_18_1" index="1" disallow="pedestrian bicycle tram rail_urban rail rail_electric rail_fast ship cable_car subway" speed="13.00" length="20.68" shape="1615.65,4571.11 1623.79,4573.73 1633.04,4580.28 1633.58,4580.86"/>
    </edge>
    <edge id=":cluster_2052409422_2052409707_542824247_542824770_#2more_22" function="internal">
        <lane id=":cluster_2052409422_2052409707_542824247_542824770_#2more_22_0" index="0" disallow="pedestrian bicycle tram rail_urban rail rail_electric rail_fast ship cable_car subway" speed="13.69" length="18.43" shape="1636.90,4581.09 1643.34,4588.02 1647.01,4596.21"/>
    </edge>
    <edge id=":cluster_2052409422_2052409707_542824247_542824770_#2more_23" function="internal">
        <lane id=":cluster_2052409422_2052409707_542824247_542824770_#2more_23_0" index="0" disallow="pedestrian bicycle tram rail_urban rail rail_electric rail_fast ship cable_car subway" speed="13.00" length="18.73" shape="1633.58,4580.86 1640.64,4588.52 1643.81,4596.21"/>
    </edge>

    <edge id="229489592#3-AddedOffRampEdge" from="229489592#3-AddedOffRampNode" to="539653860" name="North Powers Boulevard" priority="13" type="highway.trunk" spreadType="center" shape="1648.62,4416.58 1648.75,4461.15 1648.32,4516.60">
        <lane id="229489592#3-AddedOffRampEdge_0" index="0" disallow="pedestrian bicycle tram rail_urban rail rail_electric rail_fast ship cable_car subway" speed="24.59" length="96.18" shape="1653.42,4416.57 1653.55,4461.16 1653.15,4512.80">
            <param key="origId" value="229489592"/>
        </lane>
        <lane id="229489592#3-AddedOffRampEdge_1" index="1" disallow="pedestrian bicycle tram rail_urban rail rail_electric rail_fast ship cable_car subway" speed="24.59" length="96.18" shape="1650.22,4416.58 1650.35,4461.15 1649.95,4512.77">
            <param key="origId" value="229489592"/>
        </lane>
        <lane id="229489592#3-AddedOffRampEdge_2" index="2" disallow="pedestrian bicycle tram rail_urban rail rail_electric rail_fast ship cable_car subway" speed="24.59" length="96.18" shape="1647.02,4416.58 1647.15,4461.15 1646.75,4512.75">
            <param key="origId" value="229489592"/>
        </lane>
        <lane id="229489592#3-AddedOffRampEdge_3" index="3" disallow="pedestrian bicycle tram rail_urban rail rail_electric rail_fast ship cable_car subway" speed="24.59" length="96.18" shape="1643.82,4416.59 1643.95,4461.14 1643.55,4512.72">
            <param key="origId" value="229489592"/>
        </lane>
        <param key="ref" value="CO 21"/>
    </edge>
    <edge id="229489597-AddedOnRampEdge" from="2052410056" to="229489597-AddedOnRampNode" name="North Powers Boulevard" priority="13" type="highway.trunk" spreadType="center" shape="1648.88,4644.90 1649.36,4731.10 1649.54,4744.88">
        <lane id="229489597-AddedOnRampEdge_0" index="0" disallow="pedestrian bicycle tram rail_urban rail rail_electric rail_fast ship cable_car subway" speed="24.59" length="98.49" acceleration="1" shape="1653.69,4646.37 1654.16,4731.06 1654.34,4744.82">
            <param key="origId" value="229489597"/>
        </lane>
        <lane id="229489597-AddedOnRampEdge_1" index="1" disallow="pedestrian bicycle tram rail_urban rail rail_electric rail_fast ship cable_car subway" speed="24.59" length="98.49" shape="1650.49,4646.38 1650.96,4731.09 1651.14,4744.86">
            <param key="origId" value="229489597"/>
        </lane>
        <lane id="229489597-AddedOnRampEdge_2" index="2" disallow="pedestrian bicycle tram rail_urban rail rail_electric rail_fast ship cable_car subway" speed="24.59" length="98.49" shape="1647.29,4646.40 1647.76,4731.11 1647.94,4744.90">
            <param key="origId" value="229489597"/>
        </lane>
        <lane id="229489597-AddedOnRampEdge_3" index="3" disallow="pedestrian bicycle tram rail_urban rail rail_electric rail_fast ship cable_car subway" speed="24.59" length="98.49" shape="1644.09,4646.42 1644.56,4731.14 1644.74,4744.94">
            <param key="origId" value="229489597"/>
        </lane>
        <param key="ref" value="CO 21"/>
    </edge>
    <edge id="229489601-AddedOnRampEdge" from="455859464" to="229489601-AddedOnRampNode" name="North Powers Boulevard" priority="13" type="highway.trunk" spreadType="center" shape="1625.71,4515.92 1625.78,4455.06 1625.48,4415.93">
        <lane id="229489601-AddedOnRampEdge_0" index="0" disallow="pedestrian bicycle tram rail_urban rail rail_electric rail_fast ship cable_car subway" speed="24.59" length="98.65" acceleration="1" shape="1620.91,4514.57 1620.98,4455.08 1620.68,4415.97">
            <param key="origId" value="229489601"/>
        </lane>
        <lane id="229489601-AddedOnRampEdge_1" index="1" disallow="pedestrian bicycle tram rail_urban rail rail_electric rail_fast ship cable_car subway" speed="24.59" length="98.65" shape="1624.11,4514.58 1624.18,4455.07 1623.88,4415.94">
            <param key="origId" value="229489601"/>
        </lane>
        <lane id="229489601-AddedOnRampEdge_2" index="2" disallow="pedestrian bicycle tram rail_urban rail rail_electric rail_fast ship cable_car subway" speed="24.59" length="98.65" shape="1627.31,4514.58 1627.38,4455.05 1627.08,4415.92">
            <param key="origId" value="229489601"/>
        </lane>
        <lane id="229489601-AddedOnRampEdge_3" index="3" disallow="pedestrian bicycle tram rail_urban rail rail_electric rail_fast ship cable_car subway" speed="24.59" length="98.65" shape="1630.51,4514.59 1630.58,4455.04 1630.28,4415.89">
            <param key="origId" value="229489601"/>
        </lane>
        <param key="ref" value="CO 21"/>
    </edge>
    <edge id="38520914#0" from="cluster_2052409422_2052409707_542824247_542824770_#2more" to="455859771" name="Stetson Hills Boulevard" priority="11" type="highway.secondary" spreadType="center" shape="1627.42,4584.54 1572.62,4583.93">
        <lane id="38520914#0_0" index="0" disallow="tram rail_urban rail rail_electric rail_fast ship cable_car subway" speed="17.88" length="40.97" shape="1615.46,4587.61 1574.50,4587.15">
            <param key="origId" value="38520914"/>
        </lane>
        <lane id="38520914#0_1" index="1" disallow="tram rail_urban rail rail_electric rail_fast ship cable_car subway" speed="17.88" length="40.97" shape="1615.50,4584.41 1574.53,4583.95">
            <param key="origId" value="38520914"/>
        </lane>
        <lane id="38520914#0_2" index="2" disallow="tram rail_urban rail rail_electric rail_fast ship cable_car subway" speed="17.88" length="40.97" shape="1615.54,4581.21 1574.57,4580.75">
            <param key="origId" value="38520914"/>
        </lane>
        <param key="origFrom" value="542825680"/>
    </edge>
    <edge id="38520914#1-AddedOnRampEdge" from="455859771" to="38520914#1-AddedOnRampNode" name="Stetson Hills Boulevard" priority="11" type="highway.secondary" spreadType="center" shape="1572.60,4585.53 1507.16,4584.80 1482.73,4584.23 1472.64,4584.32">
        <lane id="38520914#1-AddedOnRampEdge_0" index="0" disallow="tram rail_urban rail rail_electric rail_fast ship cable_car subway" speed="17.88" length="98.55" acceleration="1" shape="1571.12,4590.31 1507.08,4589.60 1482.70,4589.03 1472.68,4589.12">
            <param key="origId" value="38520914"/>
        </lane>
        <lane id="38520914#1-AddedOnRampEdge_1" index="1" disallow="tram rail_urban rail rail_electric rail_fast ship cable_car subway" speed="17.88" length="98.55" shape="1571.16,4587.11 1507.13,4586.40 1482.72,4585.83 1472.65,4585.92">
            <param key="origId" value="38520914"/>
        </lane>
        <lane id="38520914#1-AddedOnRampEdge_2" index="2" disallow="tram rail_urban rail rail_electric rail_fast ship cable_car subway" speed="17.88" length="98.55" shape="1571.19,4583.91 1507.19,4583.20 1482.74,4582.63 1472.63,4582.72">
            <param key="origId" value="38520914"/>
        </lane>
        <lane id="38520914#1-AddedOnRampEdge_3" index="3" disallow="tram rail_urban rail rail_electric rail_fast ship cable_car subway" speed="17.88" length="98.55" shape="1571.23,4580.71 1507.24,4580.00 1482.76,4579.43 1472.60,4579.52">
            <param key="origId" value="38520914"/>
        </lane>
    </edge>
    <edge id="38521026#0" from="7233779940" to="2052409866" priority="8" type="highway.trunk_link" spreadType="center" shape="1578.58,4558.76 1591.00,4560.63 1601.23,4555.70 1610.36,4547.76">
        <lane id="38521026#0_0" index="0" disallow="pedestrian bicycle tram rail_urban rail rail_electric rail_fast ship cable_car subway" speed="22.22" length="29.88" shape="1584.65,4559.67 1591.00,4560.63 1601.23,4555.70 1610.36,4547.76">
            <param key="origId" value="38521026"/>
        </lane>
    </edge>
    <edge id="38521026#1" from="2052409866" to="455859464" priority="8" type="highway.trunk_link" spreadType="center" shape="1610.36,4547.76 1614.86,4542.88 1619.02,4536.91 1622.50,4529.98 1620.91,4515.91">
        <lane id="38521026#1_0" index="0" disallow="pedestrian bicycle tram rail_urban rail rail_electric rail_fast ship cable_car subway" speed="22.22" length="33.76" shape="1610.36,4547.76 1614.86,4542.88 1619.02,4536.91 1622.50,4529.98 1621.14,4517.97">
            <param key="origId" value="38521026"/>
        </lane>
    </edge>
    <edge id="38521030" from="455859767" to="455859771" priority="8" type="highway.trunk_link" spreadType="center" shape="1621.59,4638.78 1622.71,4620.74 1618.65,4612.26 1614.86,4606.89 1609.94,4602.37 1604.54,4597.58 1599.52,4594.77 1594.90,4592.28 1587.57,4589.34 1572.54,4590.33">
        <lane id="38521030_0" index="0" disallow="pedestrian bicycle tram rail_urban rail rail_electric rail_fast ship cable_car subway" speed="22.22" length="75.10" shape="1621.89,4633.90 1622.71,4620.74 1618.65,4612.26 1614.86,4606.89 1609.94,4602.37 1604.54,4597.58 1599.52,4594.77 1594.90,4592.28 1587.57,4589.34 1574.46,4590.20">
            <param key="origId" value="38521030"/>
        </lane>
    </edge>
    <edge id="43076363" from="2052409428" to="2052410056" priority="8" type="highway.trunk_link" spreadType="center" shape="1696.27,4590.40 1683.50,4589.71 1672.38,4596.17 1666.12,4602.06 1659.80,4610.20 1655.99,4619.08 1653.36,4625.86 1653.68,4644.87">