<?xml version="1.0" encoding="UTF-8"?>

<!-- generated on 2025-01-14 16:11:36 by Eclipse SUMO duarouter Version 1.21.0
<duarouterConfiguration xmlns:xsi="http://www.w3.org/2001/XMLSchema-instance" xsi:noNamespaceSchemaLocation="http://sumo.dlr.de/xsd/duarouterConfiguration.xsd">

    <input>
        <net-file value="file/colorado_smaller.net.xml"/>
        <route-files value="file/smaller_trips.trips.xml"/>
    </input>

    <output>
        <output-file value="your_routes.rou.xml"/>
    </output>

    <processing>
        <repair value="true"/>
    </processing>

</duarouterConfiguration>
-->

<routes xmlns:xsi="http://www.w3.org/2001/XMLSchema-instance" xsi:noNamespaceSchemaLocation="http://sumo.dlr.de/xsd/routes_file.xsd">
    <vehicle id="0" depart="0.00">
        <route edges="1206873710#0 1206873710#1 1206873710#2 858378009#0 37552734#2 37552734#3 37552734#4 37552734#5 37722941 229489602#3-AddedOnRampEdge 229489602#3 229489602#3-AddedOffRampEdge 229489602#4 229489592#2 229489592#3-AddedOnRampEdge 229489592#3 229489592#3-AddedOffRampEdge 877763364#0 978615348#0 229489597-AddedOnRampEdge 229489597 978613916 978613915 978613914 978613913#0 978613913#1 1318569357 229357869#0 229357869#1 1318569358#0 -229357870#1 -229357870#0 -237596041#0"/>
    </vehicle>
    <vehicle id="1" depart="0.13">
        <route edges="-436475432#1 -436475432#0 436475433#0 436475433#1 229489602#1 229489602#3-AddedOnRampEdge 229489602#3 229489602#3-AddedOffRampEdge 229489602#4 229489592#2 229489592#3-AddedOnRampEdge 229489592#3 229489592#3-AddedOffRampEdge 877763364#0 978615348#0 229489597-AddedOnRampEdge 229489597 978613916 978613915 978613914 978613913#0 978613913#1 1318569361#0 1318569361#1 978613906"/>
    </vehicle>
    <vehicle id="2" depart="0.25">
        <route edges="904203215#1 37552734#2 37552734#3 37552734#4 37552734#5 37722941 229489602#3-AddedOnRampEdge 229489602#3 229489602#3-AddedOffRampEdge 229489602#4 229489592#2 229489592#3-AddedOnRampEdge 229489592#3 229489592#3-AddedOffRampEdge 877763364#0 978615348#0 229489597-AddedOnRampEdge 229489597 978613916 978613915 978613914 978613913#0 978613913#1 1318569357 229357869#0 229357869#1 1318569358#0 -229357870#1 -229357870#0 -237596041#0"/>
    </vehicle>
    <vehicle id="3" depart="0.38">
        <route edges="847833259#1 1318568287#2 1318568288#0 1318568288#1 1318568289 1318569356#0 1318569356#1 978613917#0 978613917#1 978613918 718258596 718258596-AddedOffRampEdge 978615349#0 978615347#1 229489601-AddedOnRampEdge 229489601 229489601-AddedOffRampEdge 877763351#0 229489595#2 229489595#3-AddedOnRampEdge 229489595#3 229489595#3-AddedOffRampEdge 229489595#4 436475433#5 436475433#7-AddedOnRampEdge 436475433#7 436475433#8 436475433#9 436475433#10 436475433#12"/>
    </vehicle>
    <vehicle id="4" depart="0.51">
        <route edges="-436475432#1 -436475432#0 436475433#0 37723147 229489593#3-AddedOnRampEdge 229489593#3"/>
    </vehicle>
    <vehicle id="5" depart="0.63">
        <route edges="978613905 978613909 978613908 978613907#0 978613907#1 1318565916#0 1318565916#1 1318565916#2 1318565917 1318565918 1318565919 39830149#0 39830149#1 1318565920#0 229357868#1"/>
    </vehicle>
    <vehicle id="6" depart="0.76">
        <route edges="-436475432#1 -436475432#0 436475433#0 37723147 229489593#3-AddedOnRampEdge 229489593#3"/>
    </vehicle>
    <vehicle id="7" depart="0.88">
        <route edges="877763365#0 877763365#1 877763365#2 877763365#2-AddedOffRampEdge 38521026#0 38521026#1 229489601-AddedOnRampEdge 229489601 229489601-AddedOffRampEdge 36913237#0 36913237#1 877763352 -1317319993 -1317319994"/>
    </vehicle>
    <vehicle id="8" depart="1.01">
        <route edges="229489781#0 229489781#0-AddedOffRampEdge 229489781#5 229489602#1 229489602#3-AddedOnRampEdge 229489602#3 229489602#3-AddedOffRampEdge 229489602#4 229489592#2 229489592#3-AddedOnRampEdge 229489592#3 229489592#3-AddedOffRampEdge 877763364#0 978615348#0 229489597-AddedOnRampEdge 229489597 978613916 978613915 978613914 229488614#0 229488614#1 1318565916#2 1318565917 1318565918 1318565919 39830149#0 39830149#1 1318565920#0 229357868#1"/>
    </vehicle>
    <vehicle id="9" depart="1.14">
        <route edges="904203215#1 37552734#2 37552734#3 37552734#4 37552734#5 37552734#6 37552734#10 37552734#12 37552734#13 436475432#0 436475432#1"/>
    </vehicle>
    <vehicle id="10" depart="1.26">
        <route edges="978613905 978613909 978613908 978613907#0 978613907#1 1318569357 229357869#0 229357869#1 1318569358#0 1318569355#1 1318568292 1318568291 1318568290#0 1318568290#1 1318569361#0 1318569361#1 978613906"/>
    </vehicle>
    <vehicle id="11" depart="1.39">
        <route edges="36870636#9-AddedOffRampEdge 36870636#10 36870636#13 36870636#14-AddedOnRampEdge 36870636#14 36870636#16 36870636#17 36913228#0 36913228#1 229489592#3-AddedOnRampEdge 229489592#3 229489592#3-AddedOffRampEdge 877763364#0 978615348#0 229489597-AddedOnRampEdge 229489597 978613916 978613915 978613914 978613913#0 978613913#1 1318569361#0 1318569361#1 978613906"/>
    </vehicle>
    <vehicle id="12" depart="1.52">
        <route edges="877763365#0 877763365#1 877763365#2 877763365#2-AddedOffRampEdge 877763365#3 978615345#1 877763366#0-AddedOnRampEdge 877763366#0 877763366#1 877763366#2 877763366#3 43417383#2 43417383#4 E5 43417383#7 43417385#8 E7 43417385#11 43417385#12 43417385#14 43417385#14-AddedOffRampEdge 43719934#0 43719934#1 877763350#3 877763350#4 877763350#4-AddedOffRampEdge 877763350#5 38520914#0 38520914#1-AddedOnRampEdge 38520914#1"/>
    </vehicle>
    <vehicle id="13" depart="1.64">
        <route edges="194878477#0 194878477#1 1315239644 896379973#0 896379973#1 896379973#2 1318568287#2 1318568288#0 1318568288#1 1318568289 1318569356#0 1318569356#1 978613917#0 978613917#1 978613918 718258596 718258596-AddedOffRampEdge 978615349#0 978615347#1 229489601-AddedOnRampEdge 229489601 229489601-AddedOffRampEdge 877763351#0 229489595#2 229489595#3-AddedOnRampEdge 229489595#3 229489595#3-AddedOffRampEdge 229489595#4 436475433#5 436475433#7-AddedOnRampEdge 436475433#7 436475433#8 436475433#9 436475433#10 -858378009#0 -1206873710#2 -1206873710#1 -1206873710#0"/>
    </vehicle>
    <vehicle id="14" depart="1.77">
        <route edges="1317319994 1317319993 36870615#0 36870615#1 229489592#2 229489592#3-AddedOnRampEdge 229489592#3 229489592#3-AddedOffRampEdge 877763364#0 978615348#0 229489597-AddedOnRampEdge 229489597 978613916 978613915 978613914 229488614#0 229488614#1 1318565916#2 1318565917 1318565918 1318565919 39830149#0 39830149#1 1318565920#0 43417383#22 43417383#23 43417383#24 194878410#0 194878410#1 194878410#3 194878410#4"/>
    </vehicle>
    <vehicle id="15" depart="1.90">
        <route edges="877763348#6-AddedOffRampEdge 877763348#7 877763350#2 877763350#3 877763350#4 877763350#4-AddedOffRampEdge 877763350#5 978615347#1 229489601-AddedOnRampEdge 229489601 229489601-AddedOffRampEdge 36913237#0 36913237#1 877763352 -1317319993 -1317319994"/>
    </vehicle>
    <vehicle id="16" depart="2.02">
        <route edges="978613905 978613909 978613908 978613907#0 978613907#1 978613917#0 978613917#1 978613918 718258596 718258596-AddedOffRampEdge 978615349#0 978615345#1 877763366#0-AddedOnRampEdge 877763366#0 877763366#1 877763366#2 877763366#3 39829020#2"/>
    </vehicle>
    <vehicle id="17" depart="2.15">
        <route edges="877763365#0 877763365#1 877763365#2 877763365#2-AddedOffRampEdge 38521026#0 38521026#1 229489601-AddedOnRampEdge 229489601 229489601-AddedOffRampEdge 877763351#0 229489595#2 229489595#3-AddedOnRampEdge 229489595#3 229489595#3-AddedOffRampEdge 37723144 37552734#12 37552734#13 436475432#0 436475432#1"/>
    </vehicle>
    <vehicle id="18" depart="2.28">
        <route edges="877763365#0 877763365#1 877763365#2 877763365#2-AddedOffRampEdge 38521026#0 38521026#1 229489601-AddedOnRampEdge 229489601 229489601-AddedOffRampEdge 877763351#0 229489595#2 229489595#3-AddedOnRampEdge 229489595#3 229489595#3-AddedOffRampEdge 229489595#4 229489593#1 229489593#3-AddedOnRampEdge 229489593#3"/>
    </vehicle>
    <vehicle id="19" depart="2.40">
        <route edges="877763365#0 877763365#1 877763365#2 877763365#2-AddedOffRampEdge 877763365#3 978615345#1 877763366#0-AddedOnRampEdge 877763366#0 877763366#1 877763366#2 877763366#3 39829020#2"/>
    </vehicle>
    <vehicle id="20" depart="2.53">
        <route edges="877763348#6-AddedOffRampEdge 877763348#7 877763350#2 877763350#3 877763350#4 877763350#4-AddedOffRampEdge 877763350#5 978615347#1 229489601-AddedOnRampEdge 229489601 229489601-AddedOffRampEdge 877763351#0 229489595#2 229489595#3-AddedOnRampEdge 229489595#3 229489595#3-AddedOffRampEdge 37723144 37552734#12 37552734#13 436475432#0 436475432#1"/>
    </vehicle>
    <vehicle id="21" depart="2.65">
        <route edges="36870636#9-AddedOffRampEdge 36870636#10 -858377714#2 -858377714#0 -244214834 -945003352#0 -858378009#17 -858378009#16 -858378009#15 -858378009#13 -858378009#12 -858378009#11 -858378009#10 -858378009#9 -858378009#8 -858378009#7 -858378009#6 -858378009#5 -858378009#4 -858378009#3 436475433#12"/>
    </vehicle>
    <vehicle id="22" depart="2.78">
        <route edges="1206873710#0 1206873710#1 1206873710#2 858378009#0 858378009#3 858378009#4 858378009#5 858378009#6 858378009#7 858378009#8 858378009#9 858378009#10 -858378009#10 -858378009#9 -858378009#8 -858378009#7 -858378009#6 -858378009#5 -858378009#4 -858378009#3 -858378009#0 -1206873710#2 -1206873710#1 -1206873710#0"/>
    </vehicle>
    <vehicle id="23" depart="2.91">
        <route edges="1317319994 1317319993 36870615#0 36870615#1 229489592#2 229489592#3-AddedOnRampEdge 229489592#3 229489592#3-AddedOffRampEdge 877763364#0 978615348#0 229489597-AddedOnRampEdge 229489597 978613916 978613915 978613914 978613913#0 978613913#1 1318569361#0 1318569361#1 978613906"/>
    </vehicle>
    <vehicle id="24" depart="3.03">
        <route edges="-436475432#1 -436475432#0 436475433#0 436475433#1 229489602#1 229489602#3-AddedOnRampEdge 229489602#3 229489602#3-AddedOffRampEdge 229489602#4 229489592#2 229489592#3-AddedOnRampEdge 229489592#3 229489592#3-AddedOffRampEdge 877763364#0 38520914#0 38520914#1-AddedOnRampEdge 38520914#1"/>
    </vehicle>
    <vehicle id="25" depart="3.16">
        <route edges="877763348#6-AddedOffRampEdge 877763348#7 877763350#2 877763350#3 877763350#4 877763350#4-AddedOffRampEdge 877763350#5 978615347#1 229489601-AddedOnRampEdge 229489601 229489601-AddedOffRampEdge 877763351#0 229489595#2 229489595#3-AddedOnRampEdge 229489595#3 229489595#3-AddedOffRampEdge 229489595#4 436475433#5 436475433#7-AddedOnRampEdge 436475433#7 436475433#8 436475433#9 436475433#10 436475433#12"/>
    </vehicle>
    <vehicle id="26" depart="3.29">
        <route edges="36870636#9-AddedOffRampEdge 36870636#10 36870636#13 36870636#14-AddedOnRampEdge 36870636#14 36870636#16 36870636#17 36870636#19 223369742#1 877763352 -1317319993 -1317319994"/>
    </vehicle>
    <vehicle id="27" depart="3.41">
        <route edges="-436475432#1 -436475432#0 436475433#0 436475433#1 229489602#1 229489602#3-AddedOnRampEdge 229489602#3 229489602#3-AddedOffRampEdge 36913198#0 36913198#1 223369741#2-AddedOnRampEdge 223369741#2 223369741#5 223369741#6 223369741#7 223369741#8 223369741#9 223369741#12 223369741#13"/>
    </vehicle>
    <vehicle id="28" depart="3.54">
        <route edges="1317319994 1317319993 36870615#0 36870615#1 229489592#2 229489592#3-AddedOnRampEdge 229489592#3 229489592#3-AddedOffRampEdge 877763364#0 978615348#0 229489597-AddedOnRampEdge 229489597 978613916 978613915 978613914 978613913#0 978613913#1 1318569361#0 1318569361#1 978613906"/>
    </vehicle>
    <vehicle id="29" depart="3.67">
        <route edges="229489781#0 229489781#0-AddedOffRampEdge 229489781#5 37552734#10 37552734#12 37552734#13 436475432#0 436475432#1"/>
    </vehicle>
    <vehicle id="30" depart="3.79">
        <route edges="1206873710#0 1206873710#1 1206873710#2 858378009#0 858378009#3 858378009#4 858378009#5 858378009#6 858378009#7 858378009#8 858378009#9 858378009#10 -858378009#10 -858378009#9 -858378009#8 -858378009#7 -858378009#6 -858378009#5 -858378009#4 -858378009#3 -858378009#0 -1206873710#2 -1206873710#1 -1206873710#0"/>
    </vehicle>
    <vehicle id="31" depart="3.92">
        <route edges="36870636#9-AddedOffRampEdge 36870636#10 36870636#13 36870636#14-AddedOnRampEdge 36870636#14 36870636#16 36870636#17 36913228#0 36913228#1 229489592#3-AddedOnRampEdge 229489592#3 229489592#3-AddedOffRampEdge 877763364#0 978615348#0 229489597-AddedOnRampEdge 229489597 978613916 978613915 978613914 978613913#0 978613913#1 1318569361#0 1318569361#1 978613906"/>
    </vehicle>
    <vehicle id="32" depart="4.04">
        <route edges="237596041#0 237596041#3 229357870#1 1318569355#1 1318568292 1318568291 229488611#0 229488611#1 229488611#2 978613918 718258596 718258596-AddedOffRampEdge 978615349#0 978615347#1 229489601-AddedOnRampEdge 229489601 229489601-AddedOffRampEdge 877763351#0 229489595#2 229489595#3-AddedOnRampEdge 229489595#3 229489595#3-AddedOffRampEdge 229489595#4 436475433#5 436475433#7-AddedOnRampEdge 436475433#7 436475433#8 436475433#9 436475433#10 436475433#12"/>
    </vehicle>
    <vehicle id="33" depart="4.17">
        <route edges="1317319994 1317319993 36870615#0 36870615#1 229489592#2 229489592#3-AddedOnRampEdge 229489592#3 229489592#3-AddedOffRampEdge 877763364#0 978615348#0 229489597-AddedOnRampEdge 229489597 978613916 978613915 978613914 978613913#0 978613913#1 1318569357 229357869#0 229357869#1 1318569358#0 -229357870#1 -229357870#0 -237596041#0"/>
    </vehicle>
    <vehicle id="34" depart="4.30">
        <route edges="-436475432#1 -436475432#0 436475433#0 436475433#1 229489602#1 229489602#3-AddedOnRampEdge 229489602#3 229489602#3-AddedOffRampEdge 229489602#4 229489592#2 229489592#3-AddedOnRampEdge 229489592#3 229489592#3-AddedOffRampEdge 877763364#0 978615348#0 229489597-AddedOnRampEdge 229489597 978613916 978613915 978613914 229488614#0 229488614#1 1318565916#2 1318565917 1318565918 1318565919 39830149#0 39830149#1 1318565920#0 43417383#22 43417383#23 43417383#24 194878410#0 194878410#1 194878410#3 194878410#4"/>
    </vehicle>
    <vehicle id="35" depart="4.42">
        <route edges="237596041#0 237596041#3 229357870#1 1318569355#1 1318568292 1318568291 229488611#0 229488611#1 229488611#2 978613918 718258596 718258596-AddedOffRampEdge 978615349#0 978615347#1 229489601-AddedOnRampEdge 229489601 229489601-AddedOffRampEdge 877763351#0 223369741#1 223369741#2-AddedOnRampEdge 223369741#2 223369741#5 223369741#6 223369741#7 223369741#8 223369741#9 223369741#12 223369741#13"/>
    </vehicle>
    <vehicle id="36" depart="4.55">
        <route edges="877763348#6-AddedOffRampEdge 43720093#0 43720093#1 43417383#2 43417383#4 E5 43417383#7 43417383#8 43417383#9 43417383#10 E3 43417383#13 43417383#14 43417383#15 E1 43417383#17 43417383#18 43417383#22 43417383#23 43417383#24 194878410#0 194878410#1 194878410#3 194878410#4"/>
    </vehicle>
    <vehicle id="37" depart="4.68">
        <route edges="229489781#0 229489781#0-AddedOffRampEdge 229489781#5 229489602#1 229489602#3-AddedOnRampEdge 229489602#3 229489602#3-AddedOffRampEdge 36913198#0 36913198#1 223369741#2-AddedOnRampEdge 223369741#2 223369741#5 223369741#6 223369741#7 223369741#8 223369741#9 223369741#12 223369741#13"/>
    </vehicle>
    <vehicle id="38" depart="4.80">
        <route edges="877763365#0 877763365#1 877763365#2 877763365#2-AddedOffRampEdge 877763365#3 978615348#0 229489597-AddedOnRampEdge 229489597 978613916 978613915 978613914 978613913#0 978613913#1 1318569357 229357869#0 229357869#1 1318569358#0 -229357870#1 -229357870#0 -237596041#0"/>
    </vehicle>
    <vehicle id="39" depart="4.93">
        <route edges="904203215#1 -858378009#0 -1206873710#2 -1206873710#1 -1206873710#0"/>
    </vehicle>
    <vehicle id="40" depart="5.06">
        <route edges="847833259#1 43417383#22 43417383#23 43417383#24 194878410#0 194878410#1 194878410#3 194878410#4"/>
    </vehicle>
    <vehicle id="41" depart="5.18">
        <route edges="237596041#0 237596041#3 229357870#1 1318569355#1 1318568292 1318568291 1318568290#0 1318568290#1 1318569361#0 1318569361#1 978613906"/>
    </vehicle>
    <vehicle id="42" depart="5.31">
        <route edges="978613905 978613909 978613908 978613907#0 978613907#1 978613917#0 978613917#1 978613918 718258596 718258596-AddedOffRampEdge 978615349#0 978615347#1 229489601-AddedOnRampEdge 229489601 229489601-AddedOffRampEdge 877763351#0 223369741#1 223369741#2-AddedOnRampEdge 223369741#2 223369741#5 223369741#6 223369741#7 223369741#8 223369741#9 223369741#12 223369741#13"/>
    </vehicle>
    <vehicle id="43" depart="5.44">
        <route edges="978613905 978613909 978613908 978613907#0 978613907#1 978613917#0 978613917#1 978613918 718258596 718258596-AddedOffRampEdge 978615349#0 978615347#1 229489601-AddedOnRampEdge 229489601 229489601-AddedOffRampEdge 877763351#0 229489595#2 229489595#3-AddedOnRampEdge 229489595#3 229489595#3-AddedOffRampEdge 37723144 37552734#12 37552734#13 436475432#0 436475432#1"/>
    </vehicle>
    <vehicle id="44" depart="5.56">
        <route edges="237596041#0 237596041#3 229357870#1 1318569355#1 1318568292 1318568291 229488611#0 229488611#1 229488611#2 978613918 718258596 718258596-AddedOffRampEdge 978615349#0 978615345#1 877763366#0-AddedOnRampEdge 877763366#0 877763366#1 877763366#2 877763366#3 39829020#2"/>
    </vehicle>
    <vehicle id="45" depart="5.69">
        <route edges="36870636#9-AddedOffRampEdge 36870636#10 36870636#13 36870636#14-AddedOnRampEdge 36870636#14 36870636#16 36870636#17 36913228#0 36913228#1 229489592#3-AddedOnRampEdge 229489592#3 229489592#3-AddedOffRampEdge 877763364#0 978615348#0 229489597-AddedOnRampEdge 229489597 978613916 978613915 978613914 978613913#0 978613913#1 1318569361#0 1318569361#1 978613906"/>
    </vehicle>
    <vehicle id="46" depart="5.81">
        <route edges="36870636#9-AddedOffRampEdge 36870636#10 36870636#13 36870636#14-AddedOnRampEdge 36870636#14 36870636#16 36870636#17 36913228#0 36913228#1 229489592#3-AddedOnRampEdge 229489592#3 229489592#3-AddedOffRampEdge 43076383#0 43076383#1 877763366#0-AddedOnRampEdge 877763366#0 877763366#1 877763366#2 877763366#3 39829020#2"/>
    </vehicle>
    <vehicle id="47" depart="5.94">
        <route edges="978613905 978613909 978613908 978613907#0 978613907#1 978613917#0 978613917#1 978613918 718258596 718258596-AddedOffRampEdge 978615349#0 978615347#1 229489601-AddedOnRampEdge 229489601 229489601-AddedOffRampEdge 877763351#0 229489595#2 229489595#3-AddedOnRampEdge 229489595#3 229489595#3-AddedOffRampEdge 229489595#4 229489593#1 229489593#3-AddedOnRampEdge 229489593#3"/>
    </vehicle>
    <vehicle id="48" depart="6.07">
        <route edges="194878477#0 194878477#1 1315239644 896379973#0 896379973#1 896379973#2 1318568287#2 1318568288#0 1318568288#1 229488615#0 229488615#1 978613906"/>
    </vehicle>
    <vehicle id="49" depart="6.19">
        <route edges="877763365#0 877763365#1 877763365#2 877763365#2-AddedOffRampEdge 38521026#0 38521026#1 229489601-AddedOnRampEdge 229489601 229489601-AddedOffRampEdge 877763351#0 229489595#2 229489595#3-AddedOnRampEdge 229489595#3 229489595#3-AddedOffRampEdge 229489595#4 436475433#5 436475433#7-AddedOnRampEdge 436475433#7 436475433#8 436475433#9 436475433#10 436475433#12"/>
    </vehicle>
    <vehicle id="50" depart="6.32">
        <route edges="1317319994 1317319993 36870615#0 36870615#1 223369741#1 223369741#2-AddedOnRampEdge 223369741#2 223369741#5 223369741#6 223369741#7 223369741#8 223369741#9 223369741#12 223369741#13"/>
    </vehicle>
    <vehicle id="51" depart="6.45">
        <route edges="194878477#0 194878477#1 1315239644 896379973#0 896379973#1 896379973#2 1318568287#2 1318568288#0 1318568288#1 229488615#0 229488615#1 978613906"/>
    </vehicle>
    <vehicle id="52" depart="6.57">
        <route edges="1317319994 1317319993 36870615#0 36870615#1 229489592#2 229489592#3-AddedOnRampEdge 229489592#3 229489592#3-AddedOffRampEdge 877763364#0 978615348#0 229489597-AddedOnRampEdge 229489597 978613916 978613915 978613914 978613913#0 978613913#1 1318569357 229357869#0 229357869#1 1318569358#0 -229357870#1 -229357870#0 -237596041#0"/>
    </vehicle>
    <vehicle id="53" depart="6.70">
        <route edges="1317319994 1317319993 36870615#0 36870615#1 229489592#2 229489592#3-AddedOnRampEdge 229489592#3 229489592#3-AddedOffRampEdge 43076383#0 43076383#1 877763366#0-AddedOnRampEdge 877763366#0 877763366#1 877763366#2 877763366#3 39829020#2"/>
    </vehicle>
    <vehicle id="54" depart="6.83">
        <route edges="1206873710#0 1206873710#1 1206873710#2 858378009#0 37552734#2 37552734#3 37552734#4 37552734#5 37722941 229489602#3-AddedOnRampEdge 229489602#3 229489602#3-AddedOffRampEdge 229489602#4 223369742#1 877763352 -1317319993 -1317319994"/>
    </vehicle>
    <vehicle id="55" depart="6.95">
        <route edges="229489781#0 229489781#0-AddedOffRampEdge 229489781#5 229489602#1 229489602#3-AddedOnRampEdge 229489602#3 229489602#3-AddedOffRampEdge 229489602#4 229489592#2 229489592#3-AddedOnRampEdge 229489592#3 229489592#3-AddedOffRampEdge 877763364#0 38520914#0 38520914#1-AddedOnRampEdge 38520914#1"/>
    </vehicle>
    <vehicle id="56" depart="7.08">
        <route edges="229489781#0 229489781#0-AddedOffRampEdge 37722940 436475433#7-AddedOnRampEdge 436475433#7 436475433#8 436475433#9 436475433#10 -858378009#0 -1206873710#2 -1206873710#1 -1206873710#0"/>
    </vehicle>
    <vehicle id="57" depart="7.20">
        <route edges="194878477#0 194878477#1 1315239644 896379973#0 896379973#1 896379973#2 1318568287#2 1318568288#0 1318568288#1 1318568289 1318569356#0 1318569356#1 978613917#0 978613917#1 978613918 718258596 718258596-AddedOffRampEdge 978615349#0 978615347#1 229489601-AddedOnRampEdge 229489601 229489601-AddedOffRampEdge 877763351#0 229489595#2 229489595#3-AddedOnRampEdge 229489595#3 229489595#3-AddedOffRampEdge 229489595#4 229489593#1 229489593#3-AddedOnRampEdge 229489593#3"/>
    </vehicle>
    <vehicle id="58" depart="7.33">
        <route edges="877763365#0 877763365#1 877763365#2 877763365#2-AddedOffRampEdge 38521026#0 38521026#1 229489601-AddedOnRampEdge 229489601 229489601-AddedOffRampEdge 877763351#0 223369741#1 223369741#2-AddedOnRampEdge 223369741#2 223369741#5 223369741#6 223369741#7 223369741#8 223369741#9 223369741#12 223369741#13"/>
    </vehicle>
    <vehicle id="59" depart="7.46">
        <route edges="1317319994 1317319993 36870615#0 229489600#0 229489600#1 229489595#3-AddedOnRampEdge 229489595#3 229489595#3-AddedOffRampEdge 229489595#4 436475433#5 436475433#7-AddedOnRampEdge 436475433#7 436475433#8 436475433#9 436475433#10 436475433#12"/>
    </vehicle>
    <vehicle id="60" depart="7.58">
        <route edges="237596041#0 237596041#3 229357870#1 1318569355#1 1318568292 1318568291 229488611#0 229488611#1 229488611#2 978613918 718258596 718258596-AddedOffRampEdge 978615349#0 978615347#1 229489601-AddedOnRampEdge 229489601 229489601-AddedOffRampEdge 877763351#0 229489595#2 229489595#3-AddedOnRampEdge 229489595#3 229489595#3-AddedOffRampEdge 37723144 37552734#12 37552734#13 436475432#0 436475432#1"/>
    </vehicle>
    <vehicle id="61" depart="7.71">
        <route edges="877763365#0 877763365#1 877763365#2 877763365#2-AddedOffRampEdge 38521026#0 38521026#1 229489601-AddedOnRampEdge 229489601 229489601-AddedOffRampEdge 877763351#0 229489595#2 229489595#3-AddedOnRampEdge 229489595#3 229489595#3-AddedOffRampEdge 37723144 37552734#12 37552734#13 436475432#0 436475432#1"/>
    </vehicle>
    <vehicle id="62" depart="7.84">
        <route edges="978613905 978613909 978613908 978613907#0 978613907#1 978613917#0 978613917#1 978613918 718258596 718258596-AddedOffRampEdge 38521030 38520914#1-AddedOnRampEdge 38520914#1"/>
    </vehicle>
    <vehicle id="63" depart="7.96">
        <route edges="237596041#0 237596041#3 229357870#1 1318569355#1 1318568292 1318568291 1318568290#0 1318568290#1 1318565916#0 1318565916#1 1318565916#2 1318565917 1318565918 1318565919 39830149#0 39830149#1 1318565920#0 43417383#22 43417383#23 43417383#24 194878410#0 194878410#1 194878410#3 194878410#4"/>
    </vehicle>
    <vehicle id="64" depart="8.09">
        <route edges="877763365#0 877763365#1 877763365#2 877763365#2-AddedOffRampEdge 38521026#0 38521026#1 229489601-AddedOnRampEdge 229489601 229489601-AddedOffRampEdge 877763351#0 229489595#2 229489595#3-AddedOnRampEdge 229489595#3 229489595#3-AddedOffRampEdge 229489595#4 436475433#5 436475433#7-AddedOnRampEdge 436475433#7 436475433#8 436475433#9 436475433#10 436475433#12"/>
    </vehicle>
    <vehicle id="65" depart="8.22">
        <route edges="877763348#6-AddedOffRampEdge 877763348#7 877763350#2 877763350#3 877763350#4 877763350#4-AddedOffRampEdge 43076363 229489597-AddedOnRampEdge 229489597 978613916 978613915 978613914 978613913#0 978613913#1 1318569357 229357869#0 229357869#1 1318569358#0 -229357870#1 -229357870#0 -237596041#0"/>
    </vehicle>
    <vehicle id="66" depart="8.34">
        <route edges="978613905 978613909 978613908 978613907#0 978613907#1 1318565916#0 1318565916#1 1318565916#2 1318565917 1318565918 1318565919 39830149#0 39830149#1 1318565920#0 43417383#22 43417383#23 43417383#24 194878410#0 194878410#1 194878410#3 194878410#4"/>
    </vehicle>
    <vehicle id="67" depart="8.47">
        <route edges="194878477#0 194878477#1 1315239644 896379973#0 896379973#1 896379973#2 1318568287#2 1318568288#0 1318568288#1 1318568289 1318569356#0 1318569356#1 978613917#0 978613917#1 978613918 718258596 718258596-AddedOffRampEdge 978615349#0 978615347#1 229489601-AddedOnRampEdge 229489601 229489601-AddedOffRampEdge 877763351#0 223369741#1 223369741#2-AddedOnRampEdge 223369741#2 223369741#5 223369741#6 223369741#7 223369741#8 223369741#9 223369741#12 223369741#13"/>
    </vehicle>
    <vehicle id="68" depart="8.60">
        <route edges="194878477#0 194878477#1 1315239644 896379973#0 896379973#1 896379973#2 229357868#1"/>
    </vehicle>
    <vehicle id="69" depart="8.72">
        <route edges="978613905 978613909 978613908 978613907#0 978613907#1 978613917#0 978613917#1 978613918 718258596 718258596-AddedOffRampEdge 978615349#0 978615347#1 229489601-AddedOnRampEdge 229489601 229489601-AddedOffRampEdge 36913237#0 36913237#1 877763352 -1317319993 -1317319994"/>
    </vehicle>
    <vehicle id="70" depart="8.85">
        <route edges="847833259#1 1318568287#2 1318568288#0 1318568288#1 1318568289 1318569356#0 1318569356#1 978613917#0 978613917#1 978613918 718258596 718258596-AddedOffRampEdge 978615349#0 978615347#1 229489601-AddedOnRampEdge 229489601 229489601-AddedOffRampEdge 877763351#0 223369741#1 223369741#2-AddedOnRampEdge 223369741#2 223369741#5 223369741#6 223369741#7 223369741#8 223369741#9 223369741#12 223369741#13"/>
    </vehicle>
    <vehicle id="71" depart="8.97">
        <route edges="904203215#1 37552734#2 37552734#3 37552734#4 37552734#5 37722941 229489602#3-AddedOnRampEdge 229489602#3 229489602#3-AddedOffRampEdge 229489602#4 229489592#2 229489592#3-AddedOnRampEdge 229489592#3 229489592#3-AddedOffRampEdge 43076383#0 43076383#1 877763366#0-AddedOnRampEdge 877763366#0 877763366#1 877763366#2 877763366#3 39829020#2"/>
    </vehicle>
    <vehicle id="72" depart="9.10">
        <route edges="1317319994 1317319993 36870615#0 229489600#0 229489600#1 229489595#3-AddedOnRampEdge 229489595#3 229489595#3-AddedOffRampEdge 229489595#4 436475433#5 436475433#7-AddedOnRampEdge 436475433#7 436475433#8 436475433#9 436475433#10 -858378009#0 -1206873710#2 -1206873710#1 -1206873710#0"/>
    </vehicle>
    <vehicle id="73" depart="9.23">
        <route edges="904203215#1 37552734#2 37552734#3 37552734#4 37552734#5 37722941 229489602#3-AddedOnRampEdge 229489602#3 229489602#3-AddedOffRampEdge 229489602#4 229489592#2 229489592#3-AddedOnRampEdge 229489592#3 229489592#3-AddedOffRampEdge 877763364#0 978615348#0 229489597-AddedOnRampEdge 229489597 978613916 978613915 978613914 978613913#0 978613913#1 1318569357 229357869#0 229357869#1 1318569358#0 -229357870#1 -229357870#0 -237596041#0"/>
    </vehicle>
    <vehicle id="74" depart="9.35">
        <route edges="877763365#0 877763365#1 877763365#2 877763365#2-AddedOffRampEdge 877763365#3 978615345#1 877763366#0-AddedOnRampEdge 877763366#0 877763366#1 877763366#2 877763366#3 39829020#2"/>
    </vehicle>
    <vehicle id="75" depart="9.48">
        <route edges="237596041#0 237596041#3 229357870#1 1318569355#1 1318568292 1318568291 229488611#0 229488611#1 229488611#2 978613918 718258596 718258596-AddedOffRampEdge 978615349#0 978615347#1 229489601-AddedOnRampEdge 229489601 229489601-AddedOffRampEdge 877763351#0 223369741#1 223369741#2-AddedOnRampEdge 223369741#2 223369741#5 223369741#6 223369741#7 223369741#8 223369741#9 223369741#12 223369741#13"/>
    </vehicle>
    <vehicle id="76" depart="9.61">
        <route edges="904203215#1 37552734#2 37552734#3 37552734#4 37552734#5 37722941 229489602#3-AddedOnRampEdge 229489602#3 229489602#3-AddedOffRampEdge 229489602#4 229489592#2 229489592#3-AddedOnRampEdge 229489592#3 229489592#3-AddedOffRampEdge 877763364#0 978615348#0 229489597-AddedOnRampEdge 229489597 978613916 978613915 978613914 978613913#0 978613913#1 1318569357 229357869#0 229357869#1 1318569358#0 -229357870#1 -229357870#0 -237596041#0"/>
    </vehicle>
    <vehicle id="77" depart="9.73">