<configuration>
    <input>
        <net-file value="colorado_smaller.net.xml"/>
        <route-files value="colorado_smaller_1000s_7911v.rou.xml"/>
    </input>
    <report>
        <no-warnings value="true"/>
        <no-step-log value="true"/>
    </report>
</configuration>