<?xml version="1.0" encoding="UTF-8"?>

<!-- generated on 2025-01-14 14:25:50 by Eclipse SUMO netedit Version 1.21.0
<neteditConfiguration xmlns:xsi="http://www.w3.org/2001/XMLSchema-instance" xsi:noNamespaceSchemaLocation="http://sumo.dlr.de/xsd/neteditConfiguration.xsd">

    <input>
        <sumo-net-file value="D:\Code\MixedTrafficControl_IROS-main\MixedTrafficControl_Colorado\sumo_networks\colorado\colorado_smaller.net.xml"/>
    </input>

    <output>
        <output-file value="D:\Code\MixedTrafficControl_IROS-main\MixedTrafficControl_Colorado\sumo_networks\colorado\colorado_smaller.net.xml"/>
        <output.street-names value="true"/>
    </output>

    <processing>
        <geometry.min-radius.fix.railways value="false"/>
        <geometry.max-grade.fix value="false"/>
        <offset.disable-normalization value="true"/>
        <lefthand value="0"/>
    </processing>

    <junctions>
        <no-turnarounds value="true"/>
        <junctions.corner-detail value="5"/>
        <junctions.limit-turn-speed value="5.50"/>
        <rectangular-lane-cut value="0"/>
    </junctions>

    <pedestrian>
        <walkingareas value="0"/>
    </pedestrian>

</neteditConfiguration>
-->

<net version="1.20" junctionCornerDetail="5" limitTurnSpeed="5.50" xmlns:xsi="http://www.w3.org/2001/XMLSchema-instance" xsi:noNamespaceSchemaLocation="http://sumo.dlr.de/xsd/net_file.xsd">

    <location netOffset="-522669.76,-4302365.51" convBoundary="594.90,248.45,3790.60,6887.33" origBoundary="-104.738619,38.869717,-104.672604,38.940348" projParameter="+proj=utm +zone=13 +ellps=WGS84 +datum=WGS84 +units=m +no_defs"/>

    <type id="highway.footway" priority="1" numLanes="1" speed="2.78" allow="pedestrian" oneway="1" width="2.00"/>
    <type id="highway.motorway" priority="14" numLanes="2" speed="39.44" allow="private emergency authority army vip passenger hov taxi bus coach delivery truck trailer motorcycle evehicle custom1 custom2" oneway="1"/>
    <type id="highway.motorway_link" priority="9" numLanes="1" speed="22.22" allow="private emergency authority army vip passenger hov taxi bus coach delivery truck trailer motorcycle evehicle custom1 custom2" oneway="1"/>
    <type id="highway.secondary" priority="11" numLanes="1" speed="27.78" disallow="tram rail_urban rail rail_electric rail_fast ship" oneway="0"/>
    <type id="highway.secondary_link" priority="6" numLanes="1" speed="22.22" disallow="tram rail_urban rail rail_electric rail_fast ship" oneway="0"/>
    <type id="highway.service" priority="1" numLanes="1" speed="5.56" allow="pedestrian delivery bicycle" oneway="0"/>
    <type id="highway.tertiary" priority="10" numLanes="1" speed="22.22" disallow="tram rail_urban rail rail_electric rail_fast ship" oneway="0"/>
    <type id="highway.tertiary_link" priority="5" numLanes="1" speed="22.22" disallow="tram rail_urban rail rail_electric rail_fast ship" oneway="0"/>
    <type id="highway.trunk" priority="13" numLanes="2" speed="27.78" disallow="pedestrian bicycle tram rail_urban rail rail_electric rail_fast ship" oneway="0"/>
    <type id="highway.trunk_link" priority="8" numLanes="1" speed="22.22" disallow="pedestrian bicycle tram rail_urban rail rail_electric rail_fast ship" oneway="0"/>

    <edge id=":11808121466_0" function="internal">
        <lane id=":11808121466_0_0" index="0" disallow="tram rail_urban rail rail_electric rail_fast ship cable_car subway" speed="15.65" length="0.27" shape="1839.29,5495.39 1839.29,5495.63"/>
        <lane id=":11808121466_0_1" index="1" disallow="tram rail_urban rail rail_electric rail_fast ship cable_car subway" speed="15.65" length="0.27" shape="1836.09,5495.35 1836.09,5495.66"/>
    </edge>
    <edge id=":11808121467_0" function="internal">
        <lane id=":11808121467_0_0" index="0" disallow="tram rail_urban rail rail_electric rail_fast ship cable_car subway" speed="15.65" length="0.28" shape="1839.59,5520.62 1839.59,5520.87"/>
        <lane id=":11808121467_0_1" index="1" disallow="tram rail_urban rail rail_electric rail_fast ship cable_car subway" speed="15.65" length="0.28" shape="1836.39,5520.66 1836.40,5520.97"/>
    </edge>
    <edge id=":11808121468_0" function="internal">
        <lane id=":11808121468_0_0" index="0" disallow="tram rail_urban rail rail_electric rail_fast ship cable_car subway" speed="15.65" length="0.29" shape="1824.09,5495.50 1824.09,5495.19"/>
        <lane id=":11808121468_0_1" index="1" disallow="tram rail_urban rail rail_electric rail_fast ship cable_car subway" speed="15.65" length="0.29" shape="1827.29,5495.51 1827.29,5495.24"/>
    </edge>
    <edge id=":11808136169_0" function="internal">
        <lane id=":11808136169_0_0" index="0" disallow="tram rail_urban rail rail_electric rail_fast ship cable_car subway" speed="15.65" length="0.29" shape="1824.07,5520.49 1824.07,5520.17"/>
        <lane id=":11808136169_0_1" index="1" disallow="tram rail_urban rail rail_electric rail_fast ship cable_car subway" speed="15.65" length="0.29" shape="1827.27,5520.45 1827.27,5520.18"/>
    </edge>
    <edge id=":11841016766_0" function="internal">
        <lane id=":11841016766_0_0" index="0" disallow="tram rail_urban rail rail_electric rail_fast ship cable_car subway" speed="15.65" length="0.30" shape="1841.34,5338.93 1841.34,5339.23"/>
        <lane id=":11841016766_0_1" index="1" disallow="tram rail_urban rail rail_electric rail_fast ship cable_car subway" speed="15.65" length="0.30" shape="1838.14,5338.89 1838.14,5339.19"/>
    </edge>
    <edge id=":12142362530_0" function="internal">
        <lane id=":12142362530_0_0" index="0" disallow="tram rail_urban rail rail_electric rail_fast ship cable_car subway" speed="15.65" length="0.30" shape="1997.28,6042.41 1997.46,6042.65"/>
        <lane id=":12142362530_0_1" index="1" disallow="tram rail_urban rail rail_electric rail_fast ship cable_car subway" speed="15.65" length="0.30" shape="1994.78,6044.41 1994.96,6044.65"/>
    </edge>
    <edge id=":12142362531_0" function="internal">
        <lane id=":12142362531_0_0" index="0" disallow="tram rail_urban rail rail_electric rail_fast ship cable_car subway" speed="15.65" length="0.30" shape="1984.96,6051.81 1984.79,6051.57"/>
        <lane id=":12142362531_0_1" index="1" disallow="tram rail_urban rail rail_electric rail_fast ship cable_car subway" speed="15.65" length="0.30" shape="1987.55,6049.93 1987.38,6049.69"/>
    </edge>
    <edge id=":12142362678_0" function="internal">
        <lane id=":12142362678_0_0" index="0" disallow="tram rail_urban rail rail_electric rail_fast ship cable_car subway" speed="15.65" length="0.10" shape="1999.27,4805.65 1999.27,4805.65"/>
        <lane id=":12142362678_0_1" index="1" disallow="tram rail_urban rail rail_electric rail_fast ship cable_car subway" speed="15.65" length="0.10" shape="1996.45,4804.15 1996.45,4804.15"/>
    </edge>
    <edge id=":12142362679_0" function="internal">
        <lane id=":12142362679_0_0" index="0" disallow="tram rail_urban rail rail_electric rail_fast ship cable_car subway" speed="15.65" length="0.30" shape="1985.21,4798.86 1985.36,4798.58"/>
        <lane id=":12142362679_0_1" index="1" disallow="tram rail_urban rail rail_electric rail_fast ship cable_car subway" speed="15.65" length="0.30" shape="1988.05,4800.35 1988.18,4800.09"/>
    </edge>
    <edge id=":12142362680_0" function="internal">
        <lane id=":12142362680_0_0" index="0" disallow="tram rail_urban rail rail_electric rail_fast ship cable_car subway" speed="15.65" length="0.10" shape="1986.45,4829.82 1986.45,4829.82"/>
        <lane id=":12142362680_0_1" index="1" disallow="tram rail_urban rail rail_electric rail_fast ship cable_car subway" speed="15.65" length="0.10" shape="1983.63,4828.32 1983.63,4828.32"/>
    </edge>
    <edge id=":12142362681_0" function="internal">
        <lane id=":12142362681_0_0" index="0" disallow="tram rail_urban rail rail_electric rail_fast ship cable_car subway" speed="15.65" length="0.30" shape="1972.73,4822.54 1972.87,4822.27"/>
        <lane id=":12142362681_0_1" index="1" disallow="tram rail_urban rail rail_electric rail_fast ship cable_car subway" speed="15.65" length="0.30" shape="1975.57,4824.02 1975.70,4823.76"/>
    </edge>
    <edge id=":12183243021_0" function="internal">
        <lane id=":12183243021_0_0" index="0" disallow="tram rail_urban rail rail_electric rail_fast ship cable_car subway" speed="16.77" length="4.37" shape="2040.37,6337.87 2040.55,6339.11 2041.08,6339.93 2041.53,6340.75 2041.50,6341.95"/>
    </edge>
    <edge id=":12183243035_0" function="internal">
        <lane id=":12183243035_0_0" index="0" disallow="tram rail_urban rail rail_electric rail_fast ship cable_car subway" speed="17.88" length="9.33" shape="2046.42,6512.12 2051.18,6520.15"/>
    </edge>
    <edge id=":12183243035_1" function="internal">
        <lane id=":12183243035_1_0" index="0" allow="pedestrian delivery bicycle" speed="6.10" length="7.71" shape="2046.42,6512.12 2047.61,6514.61 2048.09,6516.60 2047.85,6518.10 2046.91,6519.11"/>
    </edge>
    <edge id=":12183243035_2" function="internal">
        <lane id=":12183243035_2_0" index="0" allow="pedestrian delivery bicycle" speed="6.11" length="7.70" shape="2045.29,6516.36 2046.63,6516.02 2048.05,6516.54 2049.57,6517.92 2051.18,6520.15"/>
    </edge>
    <edge id=":12183243035_3" function="internal">
        <lane id=":12183243035_3_0" index="0" allow="pedestrian delivery bicycle" speed="3.65" length="4.67" shape="2045.29,6516.36 2046.73,6516.44 2047.48,6516.92 2047.54,6517.82 2046.91,6519.11"/>
    </edge>
    <edge id=":12183243803_0" function="internal">
        <lane id=":12183243803_0_0" index="0" disallow="tram rail_urban rail rail_electric rail_fast ship cable_car subway" speed="17.88" length="6.97" shape="2041.45,6342.14 2040.93,6344.15 2040.64,6345.53 2040.41,6346.93 2040.08,6348.98"/>
    </edge>
    <edge id=":12183243803_1" function="internal">
        <lane id=":12183243803_1_0" index="0" allow="pedestrian delivery bicycle" speed="5.57" length="5.72" shape="2041.45,6342.14 2040.83,6343.74 2039.96,6344.82 2038.84,6345.39 2037.48,6345.45"/>
    </edge>
    <edge id=":12183243803_2" function="internal">
        <lane id=":12183243803_2_0" index="0" allow="pedestrian delivery bicycle" speed="6.05" length="7.85" shape="2037.91,6342.28 2039.25,6342.86 2040.06,6344.17 2040.34,6346.21 2040.08,6348.98"/>
    </edge>
    <edge id=":12183243803_3" function="internal">
        <lane id=":12183243803_3_0" index="0" allow="pedestrian delivery bicycle" speed="3.65" length="4.67" shape="2037.91,6342.28 2038.99,6343.23 2039.28,6344.08 2038.78,6344.82 2037.48,6345.45"/>
    </edge>
    <edge id=":12192097989_0" function="internal">
        <lane id=":12192097989_0_0" index="0" disallow="tram rail_urban rail rail_electric rail_fast ship cable_car subway" speed="15.65" length="8.00" shape="1365.44,2719.19 1357.76,2721.44"/>
        <lane id=":12192097989_0_1" index="1" disallow="tram rail_urban rail rail_electric rail_fast ship cable_car subway" speed="15.65" length="8.00" shape="1364.53,2716.12 1356.86,2718.37"/>
        <lane id=":12192097989_0_2" index="2" disallow="tram rail_urban rail rail_electric rail_fast ship cable_car subway" speed="15.65" length="8.00" shape="1363.63,2713.05 1355.95,2715.30"/>
    </edge>
    <edge id=":12192097989_3" function="internal">
        <lane id=":12192097989_3_0" index="0" disallow="tram rail_urban rail rail_electric rail_fast ship cable_car subway" speed="15.65" length="8.60" shape="1353.24,2706.09 1355.47,2704.92 1356.63,2703.43 1357.80,2701.94 1360.02,2700.77"/>
        <lane id=":12192097989_3_1" index="1" disallow="tram rail_urban rail rail_electric rail_fast ship cable_car subway" speed="15.65" length="8.60" shape="1354.15,2709.16 1356.37,2707.99 1357.53,2706.50 1358.70,2705.01 1360.92,2703.84"/>
        <lane id=":12192097989_3_2" index="2" disallow="tram rail_urban rail rail_electric rail_fast ship cable_car subway" speed="15.65" length="8.60" shape="1355.05,2712.23 1357.27,2711.06 1358.44,2709.57 1359.60,2708.08 1361.82,2706.91"/>
        <lane id=":12192097989_3_3" index="3" disallow="tram rail_urban rail rail_electric rail_fast ship cable_car subway" speed="15.65" length="8.60" shape="1355.05,2712.23 1362.73,2709.98"/>
    </edge>
    <edge id=":12203246697_0" function="internal">
        <lane id=":12203246697_0_0" index="0" disallow="tram rail_urban rail rail_electric rail_fast ship cable_car subway" speed="15.65" length="3.30" shape="1606.46,6264.12 1603.16,6264.45"/>
        <lane id=":12203246697_0_1" index="1" disallow="tram rail_urban rail rail_electric rail_fast ship cable_car subway" speed="15.65" length="3.30" shape="1606.13,6260.94 1602.86,6261.26"/>
    </edge>
    <edge id=":12203246700_0" function="internal">
        <lane id=":12203246700_0_0" index="0" disallow="tram rail_urban rail rail_electric rail_fast ship cable_car subway" speed="15.65" length="7.28" shape="1485.07,6287.63 1483.37,6288.69 1482.45,6289.77 1481.57,6290.93 1480.00,6292.23"/>
        <lane id=":12203246700_0_1" index="1" disallow="tram rail_urban rail rail_electric rail_fast ship cable_car subway" speed="15.65" length="7.28" shape="1483.74,6284.72 1481.92,6285.84 1480.91,6286.96 1479.95,6288.17 1478.27,6289.53"/>
        <lane id=":12203246700_0_2" index="2" disallow="tram rail_urban rail rail_electric rail_fast ship cable_car subway" speed="15.65" length="7.28" shape="1483.74,6284.72 1481.62,6285.43 1480.05,6285.61 1478.52,6285.87 1476.54,6286.84"/>
    </edge>
    <edge id=":12203249515_0" function="internal">
        <lane id=":12203249515_0_0" index="0" disallow="tram rail_urban rail rail_electric rail_fast ship cable_car subway" speed="15.65" length="9.01" shape="1520.16,6251.43 1522.46,6249.71 1523.09,6247.23 1523.72,6244.75 1526.02,6243.04"/>
        <lane id=":12203249515_0_1" index="1" disallow="tram rail_urban rail rail_electric rail_fast ship cable_car subway" speed="15.65" length="9.01" shape="1520.16,6251.43 1522.38,6250.26 1523.54,6248.77 1524.71,6247.28 1526.93,6246.10"/>
        <lane id=":12203249515_0_2" index="2" disallow="tram rail_urban rail rail_electric rail_fast ship cable_car subway" speed="15.65" length="9.01" shape="1520.16,6251.43 1527.83,6249.17"/>
        <lane id=":12203249515_0_3" index="3" disallow="tram rail_urban rail rail_electric rail_fast ship cable_car subway" speed="15.65" length="9.01" shape="1520.16,6251.43 1522.66,6251.22 1524.45,6251.84 1526.24,6252.46 1528.74,6252.24"/>
        <lane id=":12203249515_0_4" index="4" disallow="tram rail_urban rail rail_electric rail_fast ship cable_car subway" speed="15.65" length="9.01" shape="1521.06,6254.50 1523.57,6254.29 1525.35,6254.91 1527.14,6255.53 1529.64,6255.31"/>
        <lane id=":12203249515_0_5" index="5" disallow="tram rail_urban rail rail_electric rail_fast ship cable_car subway" speed="15.65" length="9.01" shape="1521.97,6257.57 1524.47,6257.35 1526.26,6257.98 1528.05,6258.60 1530.55,6258.38"/>
    </edge>
    <edge id=":12203249516_0" function="internal">
        <lane id=":12203249516_0_0" index="0" disallow="tram rail_urban rail rail_electric rail_fast ship cable_car subway" speed="15.65" length="8.21" shape="1454.06,6288.97 1455.76,6287.26 1456.66,6285.82 1457.55,6284.38 1459.25,6282.67"/>
        <lane id=":12203249516_0_1" index="1" disallow="tram rail_urban rail rail_electric rail_fast ship cable_car subway" speed="15.65" length="8.21" shape="1454.06,6288.97 1456.07,6287.65 1457.66,6287.06 1459.26,6286.48 1461.27,6285.16"/>
        <lane id=":12203249516_0_2" index="2" disallow="tram rail_urban rail rail_electric rail_fast ship cable_car subway" speed="15.65" length="8.21" shape="1456.08,6291.45 1458.10,6290.13 1459.69,6289.54 1461.28,6288.96 1463.29,6287.64"/>
    </edge>
    <edge id=":12203271505_0" function="internal">
        <lane id=":12203271505_0_0" index="0" allow="private emergency authority army vip passenger hov taxi bus coach delivery truck trailer motorcycle evehicle custom1 custom2" speed="6.96" length="6.45" shape="1611.28,6268.36 1609.84,6266.43 1608.59,6265.08 1607.53,6264.30 1606.66,6264.10"/>
    </edge>
    <edge id=":12203271505_1" function="internal">
        <lane id=":12203271505_1_0" index="0" disallow="tram rail_urban rail rail_electric rail_fast ship cable_car subway" speed="15.65" length="6.81" shape="1613.33,6263.97 1611.35,6263.94 1609.99,6263.90 1608.64,6263.93 1606.66,6264.10"/>
        <lane id=":12203271505_1_1" index="1" disallow="tram rail_urban rail rail_electric rail_fast ship cable_car subway" speed="15.65" length="6.81" shape="1613.27,6260.77 1611.20,6260.74 1609.79,6260.71 1608.38,6260.74 1606.33,6260.91"/>
    </edge>
    <edge id=":2052409366_0" function="internal">
        <lane id=":2052409366_0_0" index="0" disallow="tram rail_urban rail rail_electric rail_fast ship cable_car subway" speed="15.65" length="0.44" shape="1939.20,6226.84 1939.15,6226.84 1939.12,6226.84 1939.09,6226.85 1939.05,6226.86"/>
        <lane id=":2052409366_0_1" index="1" disallow="tram rail_urban rail rail_electric rail_fast ship cable_car subway" speed="15.65" length="0.44" shape="1938.99,6223.65 1938.86,6223.65 1938.77,6223.66 1938.68,6223.67 1938.55,6223.69"/>
        <lane id=":2052409366_0_2" index="2" disallow="tram rail_urban rail rail_electric rail_fast ship cable_car subway" speed="15.65" length="0.44" shape="1938.78,6220.45 1938.56,6220.47 1938.42,6220.48 1938.27,6220.50 1938.05,6220.53"/>
    </edge>
    <edge id=":2052409408_0" function="internal">
        <lane id=":2052409408_0_0" index="0" allow="private emergency authority army vip passenger hov taxi bus coach delivery truck trailer motorcycle evehicle custom1 custom2" speed="24.59" length="0.30" shape="1647.72,6273.20 1647.73,6273.51"/>
        <lane id=":2052409408_0_1" index="1" allow="private emergency authority army vip passenger hov taxi bus coach delivery truck trailer motorcycle evehicle custom1 custom2" speed="24.59" length="0.30" shape="1644.53,6273.30 1644.53,6273.60"/>
        <lane id=":2052409408_0_2" index="2" allow="private emergency authority army vip passenger hov taxi bus coach delivery truck trailer motorcycle evehicle custom1 custom2" speed="24.59" length="0.30" shape="1641.33,6273.40 1641.34,6273.68"/>
    </edge>
    <edge id=":2052409428_0" function="internal">
        <lane id=":2052409428_0_0" index="0" disallow="pedestrian bicycle tram rail_urban rail rail_electric rail_fast ship cable_car subway" speed="20.05" length="9.20" shape="1700.51,4591.82 1697.82,4591.68 1696.01,4591.15 1694.21,4590.54 1691.52,4590.14"/>
    </edge>
    <edge id=":2052409428_1" function="internal">
        <lane id=":2052409428_1_0" index="0" disallow="tram rail_urban rail rail_electric rail_fast ship cable_car subway" speed="17.88" length="8.54" shape="1700.51,4591.82 1697.82,4591.68 1696.01,4591.19 1694.19,4590.67 1691.50,4590.43"/>
        <lane id=":2052409428_1_1" index="1" disallow="tram rail_urban rail rail_electric rail_fast ship cable_car subway" speed="17.88" length="8.54" shape="1700.37,4588.62 1697.78,4588.48 1696.03,4587.99 1694.28,4587.47 1691.68,4587.23"/>
        <lane id=":2052409428_1_2" index="2" disallow="tram rail_urban rail rail_electric rail_fast ship cable_car subway" speed="17.88" length="8.54" shape="1700.23,4585.43 1697.73,4585.28 1696.04,4584.79 1694.36,4584.27 1691.85,4584.03"/>
        <lane id=":2052409428_1_3" index="3" disallow="tram rail_urban rail rail_electric rail_fast ship cable_car subway" speed="17.88" length="8.54" shape="1700.09,4582.23 1697.68,4582.08 1696.06,4581.59 1694.44,4581.06 1692.03,4580.83"/>
        <lane id=":2052409428_1_4" index="4" disallow="tram rail_urban rail rail_electric rail_fast ship cable_car subway" speed="17.88" length="8.54" shape="1699.95,4579.03 1697.63,4578.88 1696.08,4578.39 1694.52,4577.86 1692.20,4577.63"/>
    </edge>
    <edge id=":2052409676_0" function="internal">
        <lane id=":2052409676_0_0" index="0" disallow="tram rail_urban rail rail_electric rail_fast ship cable_car subway" speed="19.43" length="17.28" shape="2095.83,4479.40 2090.48,4481.26 2086.22,4482.57 2082.86,4484.03 2080.21,4486.31"/>
    </edge>
    <edge id=":2052409676_1" function="internal">
        <lane id=":2052409676_1_0" index="0" disallow="tram rail_urban rail rail_electric rail_fast ship cable_car subway" speed="20.12" length="17.39" shape="2094.66,4476.43 2078.40,4482.57"/>
        <lane id=":2052409676_1_1" index="1" disallow="tram rail_urban rail rail_electric rail_fast ship cable_car subway" speed="20.12" length="17.39" shape="2093.48,4473.45 2077.22,4479.60"/>
        <lane id=":2052409676_1_2" index="2" disallow="tram rail_urban rail rail_electric rail_fast ship cable_car subway" speed="20.12" length="17.39" shape="2092.30,4470.47 2076.04,4476.62"/>
        <lane id=":2052409676_1_3" index="3" disallow="tram rail_urban rail rail_electric rail_fast ship cable_car subway" speed="20.12" length="17.39" shape="2091.13,4467.50 2074.86,4473.65"/>
    </edge>
    <edge id=":2052409813_0" function="internal">
        <lane id=":2052409813_0_0" index="0" disallow="tram rail_urban rail rail_electric rail_fast ship cable_car subway" speed="15.65" length="5.03" shape="1653.10,6243.10 1654.55,6243.25 1655.50,6243.73 1656.45,6244.22 1657.90,6244.37"/>
        <lane id=":2052409813_0_1" index="1" disallow="tram rail_urban rail rail_electric rail_fast ship cable_car subway" speed="15.65" length="5.03" shape="1653.34,6246.29 1654.78,6246.44 1655.73,6246.92 1656.68,6247.41 1658.12,6247.57"/>
        <lane id=":2052409813_0_2" index="2" disallow="tram rail_urban rail rail_electric rail_fast ship cable_car subway" speed="15.65" length="5.03" shape="1653.58,6249.49 1655.02,6249.63 1655.96,6250.12 1656.90,6250.60 1658.34,6250.76"/>
    </edge>
    <edge id=":2052409866_0" function="internal">
        <lane id=":2052409866_0_0" index="0" disallow="pedestrian bicycle tram rail_urban rail rail_electric rail_fast ship cable_car subway" speed="22.22" length="0.10" shape="1610.36,4547.76 1610.36,4547.76"/>
    </edge>
    <edge id=":2052409930_0" function="internal">
        <lane id=":2052409930_0_0" index="0" disallow="tram rail_urban rail rail_electric rail_fast ship cable_car subway" speed="15.65" length="0.30" shape="2013.24,6200.59 2013.57,6200.60"/>
        <lane id=":2052409930_0_1" index="1" disallow="tram rail_urban rail rail_electric rail_fast ship cable_car subway" speed="15.65" length="0.30" shape="2013.15,6203.79 2013.47,6203.80"/>
        <lane id=":2052409930_0_2" index="2" disallow="tram rail_urban rail rail_electric rail_fast ship cable_car subway" speed="15.65" length="0.30" shape="2013.06,6206.99 2013.36,6207.00"/>
        <lane id=":2052409930_0_3" index="3" disallow="tram rail_urban rail rail_electric rail_fast ship cable_car subway" speed="15.65" length="0.30" shape="2012.97,6210.18 2013.25,6210.19"/>
        <lane id=":2052409930_0_4" index="4" disallow="tram rail_urban rail rail_electric rail_fast ship cable_car subway" speed="15.65" length="0.30" shape="2012.88,6213.38 2013.14,6213.39"/>
    </edge>
    <edge id=":2052409945_0" function="internal">
        <lane id=":2052409945_0_0" index="0" disallow="pedestrian bicycle tram rail_urban rail rail_electric rail_fast ship cable_car subway" speed="22.22" length="0.21" shape="1666.30,4547.26 1666.34,4547.31 1666.37,4547.34 1666.40,4547.37 1666.45,4547.41"/>
    </edge>
    <edge id=":2052409959_0" function="internal">
        <lane id=":2052409959_0_0" index="0" disallow="tram rail_urban rail rail_electric rail_fast ship cable_car subway" speed="15.65" length="1.59" shape="1654.42,6266.95 1656.19,6266.93"/>
        <lane id=":2052409959_0_1" index="1" disallow="tram rail_urban rail rail_electric rail_fast ship cable_car subway" speed="15.65" length="1.59" shape="1654.40,6263.75 1656.05,6263.73"/>
        <lane id=":2052409959_0_2" index="2" disallow="tram rail_urban rail rail_electric rail_fast ship cable_car subway" speed="15.65" length="1.59" shape="1654.38,6260.55 1655.91,6260.53"/>
        <lane id=":2052409959_0_3" index="3" disallow="tram rail_urban rail rail_electric rail_fast ship cable_car subway" speed="15.65" length="1.59" shape="1654.36,6257.35 1655.77,6257.33"/>
    </edge>
    <edge id=":2052409998_0" function="internal">
        <lane id=":2052409998_0_0" index="0" disallow="tram rail_urban rail rail_electric rail_fast ship cable_car subway" speed="15.65" length="5.10" shape="1603.10,6242.09 1608.29,6242.12"/>
        <lane id=":2052409998_0_1" index="1" disallow="tram rail_urban rail rail_electric rail_fast ship cable_car subway" speed="15.65" length="5.10" shape="1603.10,6245.29 1608.24,6245.32"/>
        <lane id=":2052409998_0_2" index="2" disallow="tram rail_urban rail rail_electric rail_fast ship cable_car subway" speed="15.65" length="5.10" shape="1603.10,6248.49 1608.20,6248.52"/>
        <lane id=":2052409998_0_3" index="3" disallow="tram rail_urban rail rail_electric rail_fast ship cable_car subway" speed="15.65" length="5.10" shape="1603.10,6251.69 1608.16,6251.72"/>
        <lane id=":2052409998_0_4" index="4" disallow="tram rail_urban rail rail_electric rail_fast ship cable_car subway" speed="15.65" length="5.10" shape="1603.10,6254.89 1608.12,6254.92"/>
    </edge>
    <edge id=":2052409999_0" function="internal">
        <lane id=":2052409999_0_0" index="0" allow="private emergency authority army vip passenger hov taxi bus coach delivery truck trailer motorcycle evehicle custom1 custom2" speed="24.59" length="0.62" shape="1619.61,6271.48 1619.65,6272.36"/>
        <lane id=":2052409999_0_1" index="1" allow="private emergency authority army vip passenger hov taxi bus coach delivery truck trailer motorcycle evehicle custom1 custom2" speed="24.59" length="0.62" shape="1622.81,6271.49 1622.85,6272.24"/>
        <lane id=":2052409999_0_2" index="2" allow="private emergency authority army vip passenger hov taxi bus coach delivery truck trailer motorcycle evehicle custom1 custom2" speed="24.59" length="0.62" shape="1626.01,6271.51 1626.05,6272.13"/>
        <lane id=":2052409999_0_3" index="3" allow="private emergency authority army vip passenger hov taxi bus coach delivery truck trailer motorcycle evehicle custom1 custom2" speed="24.59" length="0.62" shape="1629.21,6271.52 1629.25,6272.01"/>
        <lane id=":2052409999_0_4" index="4" allow="private emergency authority army vip passenger hov taxi bus coach delivery truck trailer motorcycle evehicle custom1 custom2" speed="24.59" length="0.62" shape="1632.41,6271.54 1632.45,6271.90"/>
    </edge>
    <edge id=":2052410020_0" function="internal">
        <lane id=":2052410020_0_0" index="0" disallow="tram rail_urban rail rail_electric rail_fast ship cable_car subway" speed="20.05" length="3.00" shape="2004.28,4511.87 2001.45,4512.86"/>
    </edge>
    <edge id=":2052410020_1" function="internal">
        <lane id=":2052410020_1_0" index="0" disallow="tram rail_urban rail rail_electric rail_fast ship cable_car subway" speed="17.88" length="3.00" shape="2003.16,4508.82 2000.35,4509.85"/>
        <lane id=":2052410020_1_1" index="1" disallow="tram rail_urban rail rail_electric rail_fast ship cable_car subway" speed="17.88" length="3.00" shape="2002.06,4505.82 1999.24,4506.85"/>
        <lane id=":2052410020_1_2" index="2" disallow="tram rail_urban rail rail_electric rail_fast ship cable_car subway" speed="17.88" length="3.00" shape="2000.96,4502.81 1998.14,4503.85"/>
    </edge>
    <edge id=":2052410023_0" function="internal">
        <lane id=":2052410023_0_0" index="0" disallow="pedestrian bicycle tram rail_urban rail rail_electric rail_fast ship cable_car subway" speed="24.59" length="0.30" shape="1621.80,6233.50 1621.80,6233.19"/>
        <lane id=":2052410023_0_1" index="1" disallow="pedestrian bicycle tram rail_urban rail rail_electric rail_fast ship cable_car subway" speed="24.59" length="0.30" shape="1625.00,6233.47 1625.00,6233.17"/>
        <lane id=":2052410023_0_2" index="2" disallow="pedestrian bicycle tram rail_urban rail rail_electric rail_fast ship cable_car subway" speed="24.59" length="0.30" shape="1628.20,6233.44 1628.20,6233.15"/>
    </edge>
    <edge id=":2052410029_0" function="internal">
        <lane id=":2052410029_0_0" index="0" disallow="tram rail_urban rail rail_electric rail_fast ship cable_car subway" speed="15.65" length="7.32" shape="1947.89,6200.82 1950.18,6200.38 1951.70,6199.74 1953.22,6199.17 1955.52,6198.95"/>
        <lane id=":2052410029_0_1" index="1" disallow="tram rail_urban rail rail_electric rail_fast ship cable_car subway" speed="15.65" length="7.32" shape="1948.15,6204.01 1950.35,6203.57 1951.81,6202.94 1953.26,6202.37 1955.47,6202.15"/>
        <lane id=":2052410029_0_2" index="2" disallow="tram rail_urban rail rail_electric rail_fast ship cable_car subway" speed="15.65" length="7.32" shape="1948.42,6207.19 1950.52,6206.77 1951.91,6206.14 1953.30,6205.57 1955.41,6205.35"/>
        <lane id=":2052410029_0_3" index="3" disallow="tram rail_urban rail rail_electric rail_fast ship cable_car subway" speed="15.65" length="7.32" shape="1948.68,6210.38 1950.69,6209.97 1952.01,6209.34 1953.34,6208.77 1955.35,6208.55"/>
        <lane id=":2052410029_0_4" index="4" disallow="tram rail_urban rail rail_electric rail_fast ship cable_car subway" speed="15.65" length="7.32" shape="1948.68,6210.38 1950.66,6210.47 1951.99,6210.94 1953.31,6211.47 1955.30,6211.75"/>
    </edge>
    <edge id=":2052410054_0" function="internal">
        <lane id=":2052410054_0_0" index="0" disallow="tram rail_urban rail rail_electric rail_fast ship cable_car subway" speed="18.93" length="9.17" shape="2054.70,4545.22 2054.22,4542.54 2053.96,4540.70 2053.81,4538.84 2053.64,4536.13"/>
    </edge>