<?xml version="1.0" encoding="UTF-8"?>

<!-- generated on 2024-12-29 00:18:44 by Eclipse SUMO duarouter Version 1.21.0
<duarouterConfiguration xmlns:xsi="http://www.w3.org/2001/XMLSchema-instance" xsi:noNamespaceSchemaLocation="http://sumo.dlr.de/xsd/duarouterConfiguration.xsd">

    <input>
        <net-file value="file/colorado_roundabouts_singleLine.net.xml"/>
        <route-files value="file/updated_trips_2.trips.xml"/>
    </input>

    <output>
        <output-file value="your_routes.rou.xml"/>
    </output>

    <processing>
        <repair value="true"/>
    </processing>

</duarouterConfiguration>
-->

<routes xmlns:xsi="http://www.w3.org/2001/XMLSchema-instance" xsi:noNamespaceSchemaLocation="http://sumo.dlr.de/xsd/routes_file.xsd">
    <vehicle id="0" depart="0.00">
        <route edges="877730942#0 877730942#0-AddedOffRampEdge 877730942#1 1305681183#1 244214840#0 244214840#1 886090985#1 886090985#2 886090985#3 121559436#0 1305681175#0 1305681175#1 1305681175#3 -886090985#1 -886090985#0 -244214840#0 1305681179#0 1305681179#0-AddedOffRampEdge 1305681179#1 657904703#0 657904703#1 657904703#2 657904703#3"/>
    </vehicle>
    <vehicle id="1" depart="1.08">
        <route edges="194878492#0 194878492#1 -229507553#3 229507553#3 194878402#1"/>
    </vehicle>
    <vehicle id="2" depart="2.16">
        <route edges="978613905 978613909 978613908 978613907#0 978613907#1 978613917#0 978613917#1 978613918 718258596 718258596-AddedOffRampEdge 978615349#0 978615345#1 877763366#0-AddedOnRampEdge 877763366#0 877763366#1 877763366#2 877763366#3 39829020#2 39829020#2-AddedOffRampEdge 39829020#3 39829020#7 39829020#8 39829020#9 39829020#10 907917858 892137984#0 892137984#0-AddedOffRampEdge 892137984#1 892137984#1-AddedOffRampEdge 892137984#2 E17 E16 E15 847829715#1 847829715#2-AddedOnRampEdge 847829715#2 847829715#3 847829715#4 892137982#0 892137982#1 892137982#2 892137982#3 229507553#0 229507553#1 229507553#2 229507553#3 910280335#0 910280335#1"/>
    </vehicle>
    <vehicle id="3" depart="3.24">
        <route edges="1317319994 1317319993 36870615#0 229489600#0 229489600#1 229489595#3-AddedOnRampEdge 229489595#3 229489595#3-AddedOffRampEdge 229489595#4 436475433#5 436475433#7-AddedOnRampEdge 436475433#7 436475433#8 436475433#9 436475433#10 -858378009#0 -1206873710#2 -1206873710#1 -1206873710#0"/>
    </vehicle>
    <vehicle id="4" depart="4.32">
        <route edges="194878477#0 194878477#1 1315239644 896379973#0 896379973#1 896379973#2 1318568287#2 1318568288#0 1318568288#1 1318568289 1318569356#0 1318569356#1 978613917#0 978613917#1 978613918 718258596 718258596-AddedOffRampEdge 978615349#0 978615347#1 229489601-AddedOnRampEdge 229489601 229489601-AddedOffRampEdge 36913237#0 36913237#1 877763352 -1317319993 -1317319994"/>
    </vehicle>
    <vehicle id="5" depart="5.40">
        <route edges="892128262#0 -229507553#3 -229507553#2 -229507553#1 -229507553#0 -121559436#2 -121559436#1 1305681175#0 118756783#1 118756783#2 118756783#3 118756783#4 118756783#5 118756783#6 118756783#6-AddedOffRampEdge 118756783#7 118756783#9 118756783#10-AddedOnRampEdge 118756783#10 118756783#11 118756783#12 37693912 36870636#0 36870636#0-AddedOffRampEdge 36870636#1 36870636#3 36870636#4-AddedOnRampEdge 36870636#4 36870636#5 36870636#6 36870636#7 36870636#8 36870636#9 36870636#9-AddedOffRampEdge 36870636#10 36870636#13 36870636#14-AddedOnRampEdge 36870636#14 36870636#16 36870636#17 36870636#19 229489595#2 229489595#3-AddedOnRampEdge 229489595#3 229489595#3-AddedOffRampEdge 229489595#4 229489593#1 229489593#3-AddedOnRampEdge 229489593#3"/>
    </vehicle>
    <vehicle id="6" depart="6.48">
        <route edges="223369752#0 223369752#1 223369752#2 223369752#3 37657924#14 904203215#0 904203215#1 37552734#2 37552734#3 37552734#4 37552734#5 37722941 229489602#3-AddedOnRampEdge 229489602#3 229489602#3-AddedOffRampEdge 229489602#4 229489592#2 229489592#3-AddedOnRampEdge 229489592#3 229489592#3-AddedOffRampEdge 877763364#0 978615348#0 229489597-AddedOnRampEdge 229489597 978613916 978613915 978613914 229488614#0 229488614#1 1318565916#2 1318565917 1318565918 1318565919 39830149#0 39830149#1 1318565920#0 43417383#22 43417383#23 43417383#24 194878410#0 194878410#1 194878410#3 194878410#4"/>
    </vehicle>
    <vehicle id="7" depart="7.56">
        <route edges="1206873710#0 1206873710#1 1206873710#2 858378009#0 37552734#2 37552734#3 37552734#4 37552734#5 37722941 229489602#3-AddedOnRampEdge 229489602#3 229489602#3-AddedOffRampEdge 229489602#4 229489592#2 229489592#3-AddedOnRampEdge 229489592#3 229489592#3-AddedOffRampEdge 877763364#0 978615348#0 229489597-AddedOnRampEdge 229489597 978613916 978613915 978613914 978613913#0 978613913#1 1318569357 229357869#0 229357869#1 1318569358#0 -229357870#1 -229357870#0 -237596041#0"/>
    </vehicle>
    <vehicle id="8" depart="8.64">
        <route edges="237596041#0 237596041#3 229357870#1 1318569355#1 1318568292 1318568291 229488611#0 229488611#1 229488611#2 978613918 718258596 718258596-AddedOffRampEdge 38521030 38520914#1-AddedOnRampEdge 38520914#1"/>
    </vehicle>
    <vehicle id="9" depart="9.72">
        <route edges="-436475432#1 -436475432#0 436475433#0 436475433#1 436475433#5 436475433#7-AddedOnRampEdge 436475433#7 436475433#8 436475433#9 436475433#10 436475433#12 436475433#13 37657919#1 37657919#2 833739973#4"/>
    </vehicle>
    <vehicle id="10" depart="10.80">
        <route edges="229489781#0 229489781#0-AddedOffRampEdge 229489781#5 37552734#10 37552734#12 37552734#13 436475432#0 436475432#1"/>
    </vehicle>
    <vehicle id="11" depart="11.88">
        <route edges="877763365#0 877763365#1 877763365#2 877763365#2-AddedOffRampEdge 877763365#3 978615348#0 229489597-AddedOnRampEdge 229489597 978613916 978613915 978613914 978613913#0 978613913#1 1318569361#0 1318569361#1 978613906"/>
    </vehicle>
    <vehicle id="12" depart="12.96">
        <route edges="237596041#0 237596041#3 229357870#1 1318569355#1 1318568292 1318568291 229488611#0 229488611#1 229488611#2 978613918 718258596 718258596-AddedOffRampEdge 978615349#0 978615347#1 229489601-AddedOnRampEdge 229489601 229489601-AddedOffRampEdge 877763351#0 229489595#2 229489595#3-AddedOnRampEdge 229489595#3 229489595#3-AddedOffRampEdge 37723144 37552734#12 37552734#13 436475432#0 436475432#1"/>
    </vehicle>
    <vehicle id="13" depart="14.04">
        <route edges="892128262#0 -229507553#3 -229507553#2 -229507553#1 -229507553#0 -121559436#2 -121559436#1 1305681175#0 118756783#1 118756783#2 118756783#3 118756783#4 118756783#5 118756783#6 118756783#6-AddedOffRampEdge 118756783#7 118756783#9 118756783#10-AddedOnRampEdge 118756783#10 118756783#11 118756783#12 37693912 36870636#0 36870636#0-AddedOffRampEdge 36870636#1 36870636#3 36870636#4-AddedOnRampEdge 36870636#4 36870636#5 36870636#6 36870636#7 36870636#8 36870636#9 36870636#9-AddedOffRampEdge 36870636#10 36870636#13 36870636#14-AddedOnRampEdge 36870636#14 36870636#16 36870636#17 36870636#19 229489595#2 229489595#3-AddedOnRampEdge 229489595#3 229489595#3-AddedOffRampEdge 229489595#4 229489593#1 229489593#3-AddedOnRampEdge 229489593#3"/>
    </vehicle>
    <vehicle id="14" depart="15.12">
        <route edges="-436475432#1 -436475432#0 436475433#0 436475433#1 229489602#1 229489602#3-AddedOnRampEdge 229489602#3 229489602#3-AddedOffRampEdge 229489602#4 229489592#2 229489592#3-AddedOnRampEdge 229489592#3 229489592#3-AddedOffRampEdge 877763364#0 978615348#0 229489597-AddedOnRampEdge 229489597 978613916 978613915 978613914 229488614#0 229488614#1 1318565916#2 1318565917 1318565918 1318565919 39830149#0 39830149#1 1318565920#0 43417383#22 43417383#23 43417383#24 194878410#0 194878410#1 194878410#3 194878410#4"/>
    </vehicle>
    <vehicle id="15" depart="16.20">
        <route edges="194878492#0 194878492#1 626197864#2 626197864#3 -888039178 -597941699#1 -597941699#0 -894433359#1 -894433359#0 597941702#0 597941702#1 858379567 -597941701#1 597941700#0 E8 597941700#4 597941700#5 597941700#6 597941700#7 847833259#0 847833259#1 1318568287#2 1318568288#0 1318568288#1 1318568289 1318569356#0 1318569356#1 1318569357 229357869#0 229357869#1 1318569358#0 -229357870#1 -229357870#0 -237596041#0"/>
    </vehicle>
    <vehicle id="16" depart="17.28">
        <route edges="223369752#0 223369752#1 223369752#2 223369752#3 223369752#7 E10 223369752#9 223369752#10 223369752#11 223369752#12 -118756781#2 -118756781#1 -118756781#0 892137985#0 892137985#0-AddedOffRampEdge 892137985#1 892137985#3 892137985#4-AddedOnRampEdge 892137985#4 892137985#5 892137985#6 892137985#7 892137985#8 892137985#9 775601513#0 775601513#1 847829715#2-AddedOnRampEdge 847829715#2 847829715#3 847829715#4 892137982#0 892137982#1 892137982#2 892137982#3 229507553#0 229507553#1 229507553#2 229507553#3 910280335#0 910280335#1"/>
    </vehicle>
    <vehicle id="17" depart="18.36">
        <route edges="194878477#0 194878477#1 1315239644 896379973#0 896379973#1 896379973#2 229357868#1 847833257#0 847833257#1 847833257#2 847833257#3 847833257#4 597941701#1 39830170 -597941702#1 -597941702#0 193565552#1 193565552#2 193565552#3 193565552#4 193565552#5 193565552#6 E12 193565552#10 193565552#10-AddedOffRampEdge 193565552#11 193565552#12 193565552#13 193565552#13-AddedOffRampEdge 193565552#14 E19 E18 E17 E16 E15 847829715#1 847829715#2-AddedOnRampEdge 847829715#2 847829715#3 847829715#4 892137982#0 892137982#1 892137982#2 892137982#3 229507553#0 229507553#1 229507553#2 229507553#3 194878402#1"/>
    </vehicle>
    <vehicle id="18" depart="19.44">
        <route edges="877763365#0 877763365#1 877763365#2 877763365#2-AddedOffRampEdge 38521026#0 38521026#1 229489601-AddedOnRampEdge 229489601 229489601-AddedOffRampEdge 877763351#0 229489595#2 229489595#3-AddedOnRampEdge 229489595#3 229489595#3-AddedOffRampEdge 229489595#4 436475433#5 436475433#7-AddedOnRampEdge 436475433#7 436475433#8 436475433#9 436475433#10 -858378009#0 -1206873710#2 -1206873710#1 -1206873710#0"/>
    </vehicle>
    <vehicle id="19" depart="20.52">
        <route edges="1206873710#0 1206873710#1 1206873710#2 858378009#0 436475433#12 436475433#13 37657919#1 37657919#2 833739973#4"/>
    </vehicle>
    <vehicle id="20" depart="21.60">
        <route edges="229489781#0 229489781#0-AddedOffRampEdge 229489781#5 229489602#1 229489602#3-AddedOnRampEdge 229489602#3 229489602#3-AddedOffRampEdge 229489602#4 229489592#2 229489592#3-AddedOnRampEdge 229489592#3 229489592#3-AddedOffRampEdge 877763364#0 978615348#0 229489597-AddedOnRampEdge 229489597 978613916 978613915 978613914 978613913#0 978613913#1 1318569361#0 1318569361#1 978613906"/>
    </vehicle>
    <vehicle id="21" depart="22.68">
        <route edges="978613905 978613909 978613908 978613907#0 978613907#1 978613917#0 978613917#1 978613918 718258596 718258596-AddedOffRampEdge 978615349#0 978615347#1 229489601-AddedOnRampEdge 229489601 229489601-AddedOffRampEdge 36913237#0 36913237#1 877763352 -1317319993 -1317319994"/>
    </vehicle>
    <vehicle id="22" depart="23.76">
        <route edges="877730942#0 877730942#0-AddedOffRampEdge 877730942#1 1305681183#1 244214840#0 244214840#1 886090985#1 886090985#2 886090985#3 121559436#0 1305681175#0 1305681175#1 1305681175#3 -886090985#1 -886090985#0 -244214840#0 1305681179#0 1305681179#0-AddedOffRampEdge 1305681179#1 657904703#0 657904703#1 657904703#2 657904703#3"/>
    </vehicle>
    <vehicle id="23" depart="24.84">
        <route edges="1317319994 1317319993 36870615#0 36870615#1 229489592#2 229489592#3-AddedOnRampEdge 229489592#3 229489592#3-AddedOffRampEdge 877763364#0 38520914#0 38520914#1-AddedOnRampEdge 38520914#1"/>
    </vehicle>
    <vehicle id="24" depart="25.92">
        <route edges="194878492#0 194878492#1 626197864#2 626197864#3 -888039178 -597941699#1 -597941699#0 -894433359#1 -894433359#0 597941702#0 597941702#1 858379567 -597941701#1 597941700#0 E8 597941700#4 597941700#5 597941700#6 597941700#7 847833259#0 847833259#1 1318568287#2 1318568288#0 1318568288#1 1318568289 1318569356#0 1318569356#1 1318569357 229357869#0 229357869#1 1318569358#0 -229357870#1 -229357870#0 -237596041#0"/>
    </vehicle>
    <vehicle id="25" depart="27.00">
        <route edges="877763365#0 877763365#1 877763365#2 877763365#2-AddedOffRampEdge 877763365#3 978615345#1 877763366#0-AddedOnRampEdge 877763366#0 877763366#1 877763366#2 877763366#3 39829020#2 39829020#2-AddedOffRampEdge 39829020#3 39829020#7 39829020#8 39829020#9 39829020#10 907917858 892137984#0 892137984#0-AddedOffRampEdge 892137984#1 892137984#1-AddedOffRampEdge 892137984#2 E17 E16 E15 847829715#1 847829715#2-AddedOnRampEdge 847829715#2 847829715#3 847829715#4 892137982#0 892137982#1 892137982#2 892137982#3 -121559436#2 -121559436#1 1305681175#0 1305681175#1 1305681175#3 -886090985#1 -886090985#0 -244214840#0 1305681179#0 1305681179#0-AddedOffRampEdge 1305681179#1 657904703#0 657904703#1 657904703#2 657904703#3"/>
    </vehicle>
    <vehicle id="26" depart="28.08">
        <route edges="237596041#0 237596041#3 229357870#1 1318569355#1 1318568292 1318568291 1318568290#0 1318568290#1 1318569361#0 1318569361#1 978613906"/>
    </vehicle>
    <vehicle id="27" depart="29.16">
        <route edges="978613905 978613909 978613908 978613907#0 978613907#1 978613917#0 978613917#1 978613918 718258596 718258596-AddedOffRampEdge 38521030 38520914#1-AddedOnRampEdge 38520914#1"/>
    </vehicle>
    <vehicle id="28" depart="30.24">
        <route edges="1317319994 1317319993 36870615#0 36870615#1 223369741#1 223369741#2-AddedOnRampEdge 223369741#2 223369741#5 223369741#6 223369741#7 223369741#8 223369741#9 858377714#6 858377714#7 -858377714#7 978617305#0 978617305#1 36870636#14-AddedOnRampEdge 36870636#14 36870636#16 36870636#17 36870636#19 223369742#1 877763352 -1317319993 -1317319994"/>
    </vehicle>
    <vehicle id="29" depart="31.32">
        <route edges="194878477#0 194878477#1 1315239644 896379973#0 896379973#1 896379973#2 229357868#1 847833257#0 847833257#1 847833257#2 847833257#3 847833257#4 597941701#1 39830170 -597941702#1 -597941702#0 193565552#1 193565552#2 193565552#3 193565552#4 193565552#5 193565552#6 E12 193565552#10 193565552#10-AddedOffRampEdge 193565552#11 193565552#12 193565552#13 193565552#13-AddedOffRampEdge 193565552#14 E19 E18 E17 E16 E15 847829715#1 847829715#2-AddedOnRampEdge 847829715#2 847829715#3 847829715#4 892137982#0 892137982#1 892137982#2 892137982#3 229507553#0 229507553#1 229507553#2 229507553#3 910280335#0 910280335#1"/>
    </vehicle>
    <vehicle id="30" depart="32.40">
        <route edges="-436475432#1 -436475432#0 436475433#0 436475433#1 229489602#1 229489602#3-AddedOnRampEdge 229489602#3 229489602#3-AddedOffRampEdge 229489602#4 229489592#2 229489592#3-AddedOnRampEdge 229489592#3 229489592#3-AddedOffRampEdge 877763364#0 978615348#0 229489597-AddedOnRampEdge 229489597 978613916 978613915 978613914 229488614#0 229488614#1 1318565916#2 1318565917 1318565918 1318565919 39830149#0 39830149#1 1318565920#0 43417383#22 43417383#23 43417383#24 194878410#0 194878410#1 194878410#3 194878410#4"/>
    </vehicle>
    <vehicle id="31" depart="33.48">
        <route edges="223369752#0 223369752#1 223369752#2 223369752#3 37657924#14 904203215#0 904203215#1 37552734#2 37552734#3 37552734#4 37552734#5 37552734#6 229489593#1 229489593#3-AddedOnRampEdge 229489593#3"/>
    </vehicle>
    <vehicle id="32" depart="34.56">
        <route edges="877730942#0 877730942#0-AddedOffRampEdge 1305681182#0 37657924#2 37657924#3-AddedOnRampEdge 37657924#3 37657924#4 37657924#5 37657924#6 37657924#7 37657924#9 37657924#10 37657924#14 904203215#0 904203215#1 37552734#2 37552734#3 37552734#4 37552734#5 37552734#6 37552734#10 37552734#12 37552734#13 436475432#0 436475432#1"/>
    </vehicle>
    <vehicle id="33" depart="35.64">
        <route edges="892128262#0 -229507553#3 -229507553#2 -229507553#1 -229507553#0 -121559436#2 -121559436#1 1305681175#0 1305681175#1 1305681175#3 -886090985#1 -886090985#0 -244214840#0 1305681179#0 1305681179#0-AddedOffRampEdge 1305681180 37657924#3-AddedOnRampEdge 37657924#3 37657924#4 37657924#5 37657924#6 37657924#7 37657924#9 37657924#10 833739973#4"/>
    </vehicle>
    <vehicle id="34" depart="36.72">
        <route edges="1206873710#0 1206873710#1 1206873710#2 858378009#0 858378009#3 858378009#4 858378009#5 858378009#6 858378009#7 858378009#8 858378009#9 858378009#10 858378009#11 858378009#12 858378009#13 858378009#15 858378009#16 858378009#17 945003352#0 945003352#1 858377714#0 978617307#0 978617307#1 223369741#13 223369741#14 223369741#16 37693911 37693888#0 37693888#1 37693888#2 37693888#2-AddedOffRampEdge 37693888#3 892137985#3 892137985#4-AddedOnRampEdge 892137985#4 892137985#5 892137985#6 892137985#7 892137985#8 892137985#9 775601513#0 775601513#1 847829715#2-AddedOnRampEdge 847829715#2 847829715#3 847829715#4 892137982#0 892137982#1 892137982#2 892137982#3 229507553#0 229507553#1 229507553#2 229507553#3 194878402#1"/>
    </vehicle>
    <vehicle id="35" depart="37.80">
        <route edges="229489781#0 229489781#0-AddedOffRampEdge 37722940 436475433#7-AddedOnRampEdge 436475433#7 436475433#8 436475433#9 436475433#10 -858378009#0 -1206873710#2 -1206873710#1 -1206873710#0"/>
    </vehicle>
    <vehicle id="36" depart="38.88">
        <route edges="892128262#0 -229507553#3 229507553#3 910280335#0 910280335#1"/>
    </vehicle>
    <vehicle id="37" depart="39.96">
        <route edges="877763365#0 877763365#1 877763365#2 877763365#2-AddedOffRampEdge 38521026#0 38521026#1 229489601-AddedOnRampEdge 229489601 229489601-AddedOffRampEdge 36913237#0 36913237#1 877763352 -1317319993 -1317319994"/>
    </vehicle>
    <vehicle id="38" depart="41.04">
        <route edges="194878492#0 194878492#1 -229507553#3 -229507553#2 -229507553#1 -229507553#0 892139397#0 892139397#1 39829697#0 39829697#1 39829697#2 39829697#2-AddedOffRampEdge 39829697#3 E13 E20 E19 39829697#7 39829697#8-AddedOnRampEdge 39829697#8 892139396#1 847829717 907917573 877763348#0 877763348#0-AddedOffRampEdge 877763348#1 877763348#5 877763348#6-AddedOnRampEdge 877763348#6 877763348#6-AddedOffRampEdge 877763348#7 877763350#2 877763350#3 877763350#4 877763350#4-AddedOffRampEdge 877763350#5 38520914#0 38520914#1-AddedOnRampEdge 38520914#1"/>
    </vehicle>
    <vehicle id="39" depart="42.12">
        <route edges="1206873710#0 1206873710#1 1206873710#2 858378009#0 37552734#2 37552734#3 37552734#4 37552734#5 37552734#6 37552734#10 37552734#12 37552734#13 436475432#0 436475432#1"/>
    </vehicle>
    <vehicle id="40" depart="43.20">
        <route edges="877730942#0 877730942#0-AddedOffRampEdge 1305681182#0 37657924#2 37657924#3-AddedOnRampEdge 37657924#3 37657924#4 37657924#5 37657924#6 37657924#7 37657924#9 37657924#10 833739973#4"/>
    </vehicle>
    <vehicle id="41" depart="44.28">
        <route edges="194878477#0 194878477#1 1315239644 896379973#0 896379973#1 896379973#2 1318568287#2 1318568288#0 1318568288#1 1318568289 1318569356#0 1318569356#1 978613917#0 978613917#1 978613918 718258596 718258596-AddedOffRampEdge 978615349#0 978615347#1 229489601-AddedOnRampEdge 229489601 229489601-AddedOffRampEdge 877763351#0 229489595#2 229489595#3-AddedOnRampEdge 229489595#3 229489595#3-AddedOffRampEdge 229489595#4 436475433#5 436475433#7-AddedOnRampEdge 436475433#7 436475433#8 436475433#9 436475433#10 -858378009#0 -1206873710#2 -1206873710#1 -1206873710#0"/>
    </vehicle>
    <vehicle id="42" depart="45.36">
        <route edges="1317319994 1317319993 36870615#0 229489600#0 229489600#1 229489595#3-AddedOnRampEdge 229489595#3 229489595#3-AddedOffRampEdge 229489595#4 229489593#1 229489593#3-AddedOnRampEdge 229489593#3"/>
    </vehicle>
    <vehicle id="43" depart="46.44">
        <route edges="237596041#0 237596041#3 229357870#1 1318569355#1 1318568292 1318568291 229488611#0 229488611#1 229488611#2 978613918 718258596 718258596-AddedOffRampEdge 978615349#0 978615345#1 877763366#0-AddedOnRampEdge 877763366#0 877763366#1 877763366#2 877763366#3 39829020#2 39829020#2-AddedOffRampEdge 39829020#3 39829020#7 39829020#8 39829020#9 39829020#10 907917858 892137984#0 892137984#0-AddedOffRampEdge 892137984#1 892137984#1-AddedOffRampEdge 892137984#2 E17 E16 E15 847829715#1 847829715#2-AddedOnRampEdge 847829715#2 847829715#3 847829715#4 892137982#0 892137982#1 892137982#2 892137982#3 229507553#0 229507553#1 229507553#2 229507553#3 194878402#1"/>
    </vehicle>
    <vehicle id="44" depart="47.52">
        <route edges="223369752#0 223369752#1 223369752#2 223369752#3 37657924#14 904203215#0 904203215#1 37552734#2 37552734#3 37552734#4 37552734#5 37722941 229489602#3-AddedOnRampEdge 229489602#3 229489602#3-AddedOffRampEdge 229489602#4 229489592#2 229489592#3-AddedOnRampEdge 229489592#3 229489592#3-AddedOffRampEdge 877763364#0 978615348#0 229489597-AddedOnRampEdge 229489597 978613916 978613915 978613914 978613913#0 978613913#1 1318569361#0 1318569361#1 978613906"/>
    </vehicle>
    <vehicle id="45" depart="48.60">
        <route edges="229489781#0 229489781#0-AddedOffRampEdge 37722940 436475433#7-AddedOnRampEdge 436475433#7 436475433#8 436475433#9 436475433#10 436475433#12 436475433#13 37657919#1 37657919#2 37657919#6 37657919#7 37657919#8 37657919#9 37657919#10 37657919#12 37657919#13 37657919#14 893197002 414032687#0 414032687#1 1160969836#0 1305681181 657904703#1 657904703#2 657904703#3"/>
    </vehicle>
    <vehicle id="46" depart="49.68">
        <route edges="978613905 978613909 978613908 978613907#0 978613907#1 1318565916#0 1318565916#1 1318565916#2 1318565917 1318565918 1318565919 39830149#0 39830149#1 1318565920#0 43417383#22 43417383#23 43417383#24 194878410#0 194878410#1 194878410#3 194878410#4"/>
    </vehicle>
    <vehicle id="47" depart="50.76">
        <route edges="-436475432#1 -436475432#0 436475433#0 436475433#1 229489602#1 229489602#3-AddedOnRampEdge 229489602#3 229489602#3-AddedOffRampEdge 229489602#4 229489592#2 229489592#3-AddedOnRampEdge 229489592#3 229489592#3-AddedOffRampEdge 877763364#0 978615348#0 229489597-AddedOnRampEdge 229489597 978613916 978613915 978613914 978613913#0 978613913#1 1318569357 229357869#0 229357869#1 1318569358#0 -229357870#1 -229357870#0 -237596041#0"/>
    </vehicle>
    <vehicle id="48" depart="51.84">
        <route edges="194878492#0 194878492#1 -229507553#3 -229507553#2 -229507553#1 -229507553#0 -121559436#2 -121559436#1 1305681175#0 118756783#1 118756783#2 118756783#3 118756783#4 118756783#5 118756783#6 118756783#6-AddedOffRampEdge 118756783#7 118756783#9 118756783#10-AddedOnRampEdge 118756783#10 118756783#11 118756783#12 37693912 36870636#0 36870636#0-AddedOffRampEdge 36870636#1 36870636#3 36870636#4-AddedOnRampEdge 36870636#4 36870636#5 36870636#6 36870636#7 36870636#8 36870636#9 36870636#9-AddedOffRampEdge 36870636#10 36870636#13 36870636#14-AddedOnRampEdge 36870636#14 36870636#16 36870636#17 36870636#19 229489595#2 229489595#3-AddedOnRampEdge 229489595#3 229489595#3-AddedOffRampEdge 229489595#4 229489593#1 229489593#3-AddedOnRampEdge 229489593#3"/>
    </vehicle>
    <vehicle id="49" depart="52.92">
        <route edges="-436475432#1 -436475432#0 436475433#0 436475433#1 436475433#5 436475433#7-AddedOnRampEdge 436475433#7 436475433#8 436475433#9 436475433#10 858378009#3 858378009#4 858378009#5 858378009#6 858378009#7 858378009#8 858378009#9 858378009#10 -858378009#10 -858378009#9 -858378009#8 -858378009#7 -858378009#6 -858378009#5 -858378009#4 -858378009#3 37552734#2 37552734#3 37552734#4 37552734#5 37552734#6 37552734#10 37552734#12 37552734#13 436475432#0 436475432#1"/>
    </vehicle>
    <vehicle id="50" depart="54.00">
        <route edges="237596041#0 237596041#3 229357870#1 1318569355#1 1318568292 1318568291 229488611#0 229488611#1 229488611#2 978613918 718258596 718258596-AddedOffRampEdge 978615349#0 978615347#1 229489601-AddedOnRampEdge 229489601 229489601-AddedOffRampEdge 36913237#0 36913237#1 877763352 -1317319993 -1317319994"/>
    </vehicle>
    <vehicle id="51" depart="55.08">
        <route edges="877730942#0 877730942#0-AddedOffRampEdge 877730942#1 1305681183#1 244214840#0 244214840#1 886090985#1 886090985#2 886090985#3 121559436#0 121559436#1 121559436#2 229507553#0 229507553#1 229507553#2 229507553#3 194878402#1"/>
    </vehicle>
    <vehicle id="52" depart="56.16">
        <route edges="194878477#0 194878477#1 194878410#3 194878410#4"/>
    </vehicle>
    <vehicle id="53" depart="57.24">
        <route edges="892128262#0 -229507553#3 229507553#3 910280335#0 910280335#1"/>
    </vehicle>
    <vehicle id="54" depart="58.32">
        <route edges="229489781#0 229489781#0-AddedOffRampEdge 229489781#5 229489602#1 229489602#3-AddedOnRampEdge 229489602#3 229489602#3-AddedOffRampEdge 229489602#4 229489592#2 229489592#3-AddedOnRampEdge 229489592#3 229489592#3-AddedOffRampEdge 877763364#0 978615348#0 229489597-AddedOnRampEdge 229489597 978613916 978613915 978613914 978613913#0 978613913#1 1318569361#0 1318569361#1 978613906"/>
    </vehicle>
    <vehicle id="55" depart="59.40">
        <route edges="1317319994 1317319993 36870615#0 229489600#0 229489600#1 229489595#3-AddedOnRampEdge 229489595#3 229489595#3-AddedOffRampEdge 229489595#4 436475433#5 436475433#7-AddedOnRampEdge 436475433#7 436475433#8 436475433#9 436475433#10 436475433#12 436475433#13 37657919#1 37657919#2 37657919#6 37657919#7 37657919#8 37657919#9 37657919#10 37657919#12 37657919#13 37657919#14 893197002 414032687#0 414032687#1 1160969836#0 1305681181 657904703#1 657904703#2 657904703#3"/>
    </vehicle>
    <vehicle id="56" depart="60.48">
        <route edges="978613905 978613909 978613908 978613907#0 978613907#1 978613917#0 978613917#1 978613918 718258596 718258596-AddedOffRampEdge 978615349#0 978615347#1 229489601-AddedOnRampEdge 229489601 229489601-AddedOffRampEdge 877763351#0 229489595#2 229489595#3-AddedOnRampEdge 229489595#3 229489595#3-AddedOffRampEdge 229489595#4 436475433#5 436475433#7-AddedOnRampEdge 436475433#7 436475433#8 436475433#9 436475433#10 -858378009#0 -1206873710#2 -1206873710#1 -1206873710#0"/>
    </vehicle>
    <vehicle id="57" depart="61.56">
        <route edges="1206873710#0 1206873710#1 1206873710#2 858378009#0 37552734#2 37552734#3 37552734#4 37552734#5 37722941 229489602#3-AddedOnRampEdge 229489602#3 229489602#3-AddedOffRampEdge 229489602#4 229489592#2 229489592#3-AddedOnRampEdge 229489592#3 229489592#3-AddedOffRampEdge 877763364#0 978615348#0 229489597-AddedOnRampEdge 229489597 978613916 978613915 978613914 978613913#0 978613913#1 1318569357 229357869#0 229357869#1 1318569358#0 -229357870#1 -229357870#0 -237596041#0"/>
    </vehicle>
    <vehicle id="58" depart="62.64">
        <route edges="877763365#0 877763365#1 877763365#2 877763365#2-AddedOffRampEdge 38521026#0 38521026#1 229489601-AddedOnRampEdge 229489601 229489601-AddedOffRampEdge 877763351#0 229489595#2 229489595#3-AddedOnRampEdge 229489595#3 229489595#3-AddedOffRampEdge 229489595#4 436475433#5 436475433#7-AddedOnRampEdge 436475433#7 436475433#8 436475433#9 436475433#10 436475433#12 436475433#13 37657919#1 37657919#2 833739973#4"/>
    </vehicle>
    <vehicle id="59" depart="63.72">
        <route edges="223369752#0 223369752#1 223369752#2 223369752#3 37657924#14 904203215#0 904203215#1 37552734#2 37552734#3 37552734#4 37552734#5 37722941 229489602#3-AddedOnRampEdge 229489602#3 229489602#3-AddedOffRampEdge 229489602#4 229489592#2 229489592#3-AddedOnRampEdge 229489592#3 229489592#3-AddedOffRampEdge 877763364#0 38520914#0 38520914#1-AddedOnRampEdge 38520914#1"/>
    </vehicle>
    <vehicle id="60" depart="64.80">
        <route edges="194878477#0 194878477#1 1315239644 896379973#0 896379973#1 896379973#2 229357868#1 847833257#0 847833257#1 847833257#2 847833257#3 847833257#4 597941701#1 39830170 -597941702#1 -597941702#0 193565552#1 193565552#2 193565552#3 193565552#4 193565552#5 193565552#6 E12 193565552#10 193565552#10-AddedOffRampEdge 193565552#11 193565552#12 193565552#13 193565552#13-AddedOffRampEdge 193565552#14 E19 E18 E17 E16 E15 847829715#1 847829715#2-AddedOnRampEdge 847829715#2 847829715#3 847829715#4 892137982#0 892137982#1 892137982#2 892137982#3 229507553#0 229507553#1 229507553#2 229507553#3 910280335#0 910280335#1"/>
    </vehicle>
    <vehicle id="61" depart="65.88">
        <route edges="-436475432#1 -436475432#0 436475433#0 436475433#1 436475433#5 436475433#7-AddedOnRampEdge 436475433#7 436475433#8 436475433#9 436475433#10 -858378009#0 -1206873710#2 -1206873710#1 -1206873710#0"/>
    </vehicle>
    <vehicle id="62" depart="66.96">
        <route edges="229489781#0 229489781#0-AddedOffRampEdge 229489781#5 229489602#1 229489602#3-AddedOnRampEdge 229489602#3 229489602#3-AddedOffRampEdge 229489602#4 229489592#2 229489592#3-AddedOnRampEdge 229489592#3 229489592#3-AddedOffRampEdge 877763364#0 978615348#0 229489597-AddedOnRampEdge 229489597 978613916 978613915 978613914 229488614#0 229488614#1 1318565916#2 1318565917 1318565918 1318565919 39830149#0 39830149#1 1318565920#0 43417383#22 43417383#23 43417383#24 194878410#0 194878410#1 194878410#3 194878410#4"/>
    </vehicle>
    <vehicle id="63" depart="68.04">
        <route edges="237596041#0 237596041#3 229357870#1 1318569355#1 1318568292 1318568291 229488611#0 229488611#1 229488611#2 978613918 718258596 718258596-AddedOffRampEdge 978615349#0 978615347#1 229489601-AddedOnRampEdge 229489601 229489601-AddedOffRampEdge 36913237#0 36913237#1 877763352 -1317319993 -1317319994"/>
    </vehicle>
    <vehicle id="64" depart="69.12">
        <route edges="978613905 978613909 978613908 978613907#0 978613907#1 978613917#0 978613917#1 978613918 718258596 718258596-AddedOffRampEdge 978615349#0 978615347#1 229489601-AddedOnRampEdge 229489601 229489601-AddedOffRampEdge 877763351#0 229489595#2 229489595#3-AddedOnRampEdge 229489595#3 229489595#3-AddedOffRampEdge 37723144 37552734#12 37552734#13 436475432#0 436475432#1"/>
    </vehicle>
    <vehicle id="65" depart="70.20">