<?xml version="1.0" encoding="UTF-8"?>

<!-- generated on 2024-10-08 15:26:47 by Eclipse SUMO netedit Version 1.18.0
<configuration xmlns:xsi="http://www.w3.org/2001/XMLSchema-instance" xsi:noNamespaceSchemaLocation="http://sumo.dlr.de/xsd/neteditConfiguration.xsd">

    <input>
        <sumo-net-file value="C:\Users\mislam73\OneDrive - University of Tennessee\UTK Life\Research\4 Boundary Conditions\networks\memphis\memphis.net.xml"/>
    </input>

    <output>
        <output-file value="C:\Users\mislam73\OneDrive - University of Tennessee\UTK Life\Research\4 Boundary Conditions\networks\memphis\memphis.net.xml"/>
        <output.street-names value="true"/>
    </output>

    <processing>
        <geometry.min-radius.fix.railways value="false"/>
        <geometry.max-grade.fix value="false"/>
        <offset.disable-normalization value="true"/>
        <lefthand value="0"/>
    </processing>

    <junctions>
        <no-turnarounds value="true"/>
        <junctions.corner-detail value="5"/>
        <junctions.limit-turn-speed value="5.50"/>
        <rectangular-lane-cut value="0"/>
    </junctions>

    <pedestrian>
        <walkingareas value="0"/>
    </pedestrian>

</configuration>
-->

<net version="1.16" junctionCornerDetail="5" limitTurnSpeed="5.50" xmlns:xsi="http://www.w3.org/2001/XMLSchema-instance" xsi:noNamespaceSchemaLocation="http://sumo.dlr.de/xsd/net_file.xsd">

    <location netOffset="-228023.88,-3888434.49" convBoundary="2347.67,10.62,10323.07,4817.08" origBoundary="-89.984263,35.099926,-89.870614,35.147439" projParameter="+proj=utm +zone=16 +ellps=WGS84 +datum=WGS84 +units=m +no_defs"/>

    <type id="highway.primary" priority="12" numLanes="2" speed="27.78" disallow="tram rail_urban rail rail_electric rail_fast ship" oneway="0"/>
    <type id="highway.primary_link" priority="7" numLanes="1" speed="22.22" disallow="tram rail_urban rail rail_electric rail_fast ship" oneway="0"/>
    <type id="highway.residential" priority="3" numLanes="1" speed="13.89" disallow="tram rail_urban rail rail_electric rail_fast ship" oneway="0"/>
    <type id="highway.secondary" priority="11" numLanes="1" speed="27.78" disallow="tram rail_urban rail rail_electric rail_fast ship" oneway="0"/>
    <type id="highway.secondary_link" priority="6" numLanes="1" speed="22.22" disallow="tram rail_urban rail rail_electric rail_fast ship" oneway="0"/>
    <type id="highway.tertiary" priority="10" numLanes="1" speed="22.22" disallow="tram rail_urban rail rail_electric rail_fast ship" oneway="0"/>

    <edge id=":10127210969_0" function="internal">
        <lane id=":10127210969_0_0" index="0" disallow="tram rail_urban rail rail_electric rail_fast ship" speed="27.78" length="8.54" shape="6847.13,1417.78 6845.86,1415.62 6844.32,1414.52 6842.78,1413.42 6841.50,1411.26"/>
        <lane id=":10127210969_0_1" index="1" disallow="tram rail_urban rail rail_electric rail_fast ship" speed="27.78" length="8.54" shape="6850.16,1416.74 6848.88,1414.58 6847.34,1413.48 6845.80,1412.38 6844.53,1410.22"/>
        <lane id=":10127210969_0_2" index="2" disallow="tram rail_urban rail rail_electric rail_fast ship" speed="27.78" length="8.54" shape="6850.16,1416.74 6847.56,1409.18"/>
    </edge>
    <edge id=":10127210969_3" function="internal">
        <lane id=":10127210969_3_0" index="0" disallow="tram rail_urban rail rail_electric rail_fast ship" speed="27.78" length="8.54" shape="6853.61,1407.10 6854.88,1409.26 6856.42,1410.36 6857.96,1411.46 6859.24,1413.62"/>
        <lane id=":10127210969_3_1" index="1" disallow="tram rail_urban rail rail_electric rail_fast ship" speed="27.78" length="8.54" shape="6850.58,1408.14 6851.86,1410.30 6853.40,1411.40 6854.94,1412.50 6856.21,1414.66"/>
        <lane id=":10127210969_3_2" index="2" disallow="tram rail_urban rail rail_electric rail_fast ship" speed="27.78" length="8.54" shape="6850.58,1408.14 6853.18,1415.70"/>
    </edge>
    <edge id=":10127210970_0" function="internal">
        <lane id=":10127210970_0_0" index="0" disallow="tram rail_urban rail rail_electric rail_fast ship" speed="17.88" length="8.00" shape="6810.71,1506.31 6803.79,1510.31"/>
        <lane id=":10127210970_0_1" index="1" disallow="tram rail_urban rail rail_electric rail_fast ship" speed="17.88" length="8.00" shape="6809.11,1503.54 6802.19,1507.54"/>
        <lane id=":10127210970_0_2" index="2" disallow="tram rail_urban rail rail_electric rail_fast ship" speed="17.88" length="8.00" shape="6807.51,1500.77 6800.59,1504.77"/>
    </edge>
    <edge id=":10127210970_3" function="internal">
        <lane id=":10127210970_3_0" index="0" disallow="tram rail_urban rail rail_electric rail_fast ship" speed="17.88" length="8.61" shape="6795.79,1496.45 6797.67,1494.79 6798.45,1493.07 6799.23,1491.34 6801.12,1489.68"/>
        <lane id=":10127210970_3_1" index="1" disallow="tram rail_urban rail rail_electric rail_fast ship" speed="17.88" length="8.61" shape="6797.39,1499.22 6799.27,1497.56 6800.05,1495.84 6800.83,1494.12 6802.72,1492.45"/>
        <lane id=":10127210970_3_2" index="2" disallow="tram rail_urban rail rail_electric rail_fast ship" speed="17.88" length="8.61" shape="6798.99,1501.99 6800.87,1500.33 6801.65,1498.61 6802.43,1496.89 6804.31,1495.22"/>
        <lane id=":10127210970_3_3" index="3" disallow="tram rail_urban rail rail_electric rail_fast ship" speed="17.88" length="8.61" shape="6798.99,1501.99 6805.91,1497.99"/>
    </edge>
    <edge id=":11337247847_0" function="internal">
        <lane id=":11337247847_0_0" index="0" disallow="tram rail_urban rail rail_electric rail_fast ship" speed="17.88" length="14.44" shape="8186.15,2328.17 8185.08,2313.77"/>
        <lane id=":11337247847_0_1" index="1" disallow="tram rail_urban rail rail_electric rail_fast ship" speed="17.88" length="14.44" shape="8189.34,2327.94 8188.27,2313.53"/>
    </edge>
    <edge id=":11337247847_2" function="internal">
        <lane id=":11337247847_2_0" index="0" disallow="tram rail_urban rail rail_electric rail_fast ship" speed="9.22" length="3.31" shape="8189.34,2327.94 8189.82,2324.66"/>
    </edge>
    <edge id=":11337247847_8" function="internal">
        <lane id=":11337247847_8_0" index="0" disallow="tram rail_urban rail rail_electric rail_fast ship" speed="9.22" length="13.59" shape="8189.82,2324.66 8189.85,2324.45 8191.94,2321.56 8195.59,2319.26 8200.81,2317.57"/>
    </edge>
    <edge id=":11337247847_3" function="internal">
        <lane id=":11337247847_3_0" index="0" disallow="tram rail_urban rail rail_electric rail_fast ship" speed="7.18" length="9.87" shape="8201.54,2320.68 8198.85,2321.65 8196.98,2323.10 8195.94,2325.05 8195.72,2327.48"/>
    </edge>
    <edge id=":11337247847_4" function="internal">
        <lane id=":11337247847_4_0" index="0" disallow="tram rail_urban rail rail_electric rail_fast ship" speed="8.44" length="17.75" shape="8201.54,2320.68 8196.02,2321.33 8191.97,2320.35 8189.39,2317.75 8188.27,2313.53"/>
    </edge>
    <edge id=":11337247847_5" function="internal">
        <lane id=":11337247847_5_0" index="0" disallow="tram rail_urban rail rail_electric rail_fast ship" speed="6.20" length="9.05" shape="8194.65,2313.05 8195.21,2315.52 8196.42,2317.10 8198.28,2317.78 8200.81,2317.57"/>
    </edge>
    <edge id=":11337247847_6" function="internal">
        <lane id=":11337247847_6_0" index="0" disallow="tram rail_urban rail rail_electric rail_fast ship" speed="17.88" length="14.46" shape="8194.65,2313.05 8195.72,2327.48"/>
        <lane id=":11337247847_6_1" index="1" disallow="tram rail_urban rail rail_electric rail_fast ship" speed="17.88" length="14.46" shape="8191.46,2313.29 8192.53,2327.71"/>
    </edge>
    <edge id=":203618946_0" function="internal">
        <lane id=":203618946_0_0" index="0" disallow="tram rail_urban rail rail_electric rail_fast ship" speed="17.88" length="26.82" shape="4654.32,2181.07 4627.40,2181.51"/>
        <lane id=":203618946_0_1" index="1" disallow="tram rail_urban rail rail_electric rail_fast ship" speed="17.88" length="26.82" shape="4654.10,2177.88 4627.40,2178.31"/>
    </edge>
    <edge id=":203618946_2" function="internal">
        <lane id=":203618946_2_0" index="0" disallow="tram rail_urban rail rail_electric rail_fast ship" speed="11.15" length="8.85" shape="4653.88,2174.68 4645.03,2174.34"/>
    </edge>
    <edge id=":203618946_8" function="internal">
        <lane id=":203618946_8_0" index="0" disallow="tram rail_urban rail rail_electric rail_fast ship" speed="11.15" length="20.07" shape="4645.03,2174.34 4644.92,2174.34 4638.41,2171.88 4634.34,2167.31 4632.72,2160.62"/>
    </edge>
    <edge id=":203618946_3" function="internal">
        <lane id=":203618946_3_0" index="0" disallow="tram rail_urban rail rail_electric rail_fast ship" speed="9.02" length="18.58" shape="4639.11,2160.23 4640.18,2164.12 4642.92,2166.76 4647.34,2168.16 4653.44,2168.30"/>
    </edge>
    <edge id=":203618946_4" function="internal">
        <lane id=":203618946_4_0" index="0" disallow="tram rail_urban rail rail_electric rail_fast ship" speed="9.72" length="22.16" shape="4635.91,2160.42 4635.72,2168.22 4634.24,2173.80 4631.47,2177.17 4627.40,2178.31"/>
    </edge>
    <edge id=":203618946_5" function="internal">
        <lane id=":203618946_5_0" index="0" disallow="tram rail_urban rail rail_electric rail_fast ship" speed="6.88" length="9.25" shape="4627.42,2167.04 4629.84,2166.26 4631.53,2164.94 4632.49,2163.06 4632.72,2160.62"/>
    </edge>
    <edge id=":203618946_6" function="internal">
        <lane id=":203618946_6_0" index="0" disallow="tram rail_urban rail rail_electric rail_fast ship" speed="17.88" length="26.25" shape="4627.41,2170.29 4635.50,2169.11 4641.50,2168.70 4646.97,2168.58 4653.44,2168.30"/>
        <lane id=":203618946_6_1" index="1" disallow="tram rail_urban rail rail_electric rail_fast ship" speed="17.88" length="26.25" shape="4627.41,2173.54 4635.58,2172.35 4641.65,2171.91 4647.17,2171.78 4653.66,2171.49"/>
    </edge>
    <edge id=":203622586_0" function="internal">
        <lane id=":203622586_0_0" index="0" disallow="tram rail_urban rail rail_electric rail_fast ship" speed="17.88" length="0.31" shape="7161.23,1312.58 7161.14,1312.63"/>
        <lane id=":203622586_0_1" index="1" disallow="tram rail_urban rail rail_electric rail_fast ship" speed="17.88" length="0.31" shape="7159.85,1309.70 7159.58,1309.84"/>
        <lane id=":203622586_0_2" index="2" disallow="tram rail_urban rail rail_electric rail_fast ship" speed="17.88" length="0.31" shape="7158.47,1306.81 7158.01,1307.05"/>
    </edge>
    <edge id=":203622586_3" function="internal">
        <lane id=":203622586_3_0" index="0" disallow="tram rail_urban rail rail_electric rail_fast ship" speed="17.88" length="0.92" shape="7153.32,1298.67 7154.33,1298.15"/>
        <lane id=":203622586_3_1" index="1" disallow="tram rail_urban rail rail_electric rail_fast ship" speed="17.88" length="0.92" shape="7154.89,1301.46 7155.71,1301.04"/>
        <lane id=":203622586_3_2" index="2" disallow="tram rail_urban rail rail_electric rail_fast ship" speed="17.88" length="0.92" shape="7156.45,1304.25 7157.09,1303.92"/>
    </edge>
    <edge id=":203627371_0" function="internal">
        <lane id=":203627371_0_0" index="0" disallow="tram rail_urban rail rail_electric rail_fast ship" speed="17.88" length="0.24" shape="6602.30,1621.23 6602.12,1621.33"/>
        <lane id=":203627371_0_1" index="1" disallow="tram rail_urban rail rail_electric rail_fast ship" speed="17.88" length="0.24" shape="6600.80,1618.41 6600.59,1618.52"/>
        <lane id=":203627371_0_2" index="2" disallow="tram rail_urban rail rail_electric rail_fast ship" speed="17.88" length="0.24" shape="6599.29,1615.58 6599.05,1615.71"/>
    </edge>
    <edge id=":203627371_3" function="internal">
        <lane id=":203627371_3_0" index="0" disallow="tram rail_urban rail rail_electric rail_fast ship" speed="17.88" length="0.35" shape="6594.44,1607.29 6594.78,1607.11"/>
        <lane id=":203627371_3_1" index="1" disallow="tram rail_urban rail rail_electric rail_fast ship" speed="17.88" length="0.35" shape="6595.98,1610.10 6596.28,1609.93"/>
        <lane id=":203627371_3_2" index="2" disallow="tram rail_urban rail rail_electric rail_fast ship" speed="17.88" length="0.35" shape="6597.51,1612.91 6597.79,1612.76"/>
    </edge>
    <edge id=":203629337_0" function="internal">
        <lane id=":203629337_0_0" index="0" disallow="tram rail_urban rail rail_electric rail_fast ship" speed="7.35" length="11.79" shape="3616.81,3226.29 3616.16,3222.45 3614.90,3219.76 3613.02,3218.24 3610.54,3217.88"/>
    </edge>
    <edge id=":203629337_1" function="internal">
        <lane id=":203629337_1_0" index="0" disallow="tram rail_urban rail rail_electric rail_fast ship" speed="27.78" length="27.47" shape="3616.81,3226.29 3616.65,3217.63 3617.31,3211.19 3618.07,3205.44 3618.21,3198.86"/>
        <lane id=":203629337_1_1" index="1" disallow="tram rail_urban rail rail_electric rail_fast ship" speed="27.78" length="27.47" shape="3620.00,3226.04 3619.85,3217.41 3620.50,3210.99 3621.26,3205.26 3621.41,3198.69"/>
    </edge>
    <edge id=":203629337_3" function="internal">
        <lane id=":203629337_3_0" index="0" disallow="tram rail_urban rail rail_electric rail_fast ship" speed="10.33" length="24.59" shape="3623.19,3225.79 3623.62,3219.06 3626.11,3214.10 3630.66,3210.93 3637.27,3209.53"/>
    </edge>
    <edge id=":203629337_4" function="internal">
        <lane id=":203629337_4_0" index="0" disallow="tram rail_urban rail rail_electric rail_fast ship" speed="7.28" length="11.69" shape="3637.90,3219.11 3634.09,3219.71 3631.44,3220.95 3629.93,3222.81 3629.57,3225.29"/>
    </edge>
    <edge id=":203629337_5" function="internal">
        <lane id=":203629337_5_0" index="0" disallow="tram rail_urban rail rail_electric rail_fast ship" speed="16.77" length="27.46" shape="3637.90,3219.11 3629.26,3219.19 3622.83,3218.54 3617.10,3217.87 3610.54,3217.88"/>
        <lane id=":203629337_5_1" index="1" disallow="tram rail_urban rail rail_electric rail_fast ship" speed="16.77" length="27.46" shape="3637.69,3215.92 3629.04,3216.00 3622.59,3215.35 3616.85,3214.68 3610.29,3214.69"/>
    </edge>
    <edge id=":203629337_7" function="internal">
        <lane id=":203629337_7_0" index="0" disallow="tram rail_urban rail rail_electric rail_fast ship" speed="10.29" length="7.22" shape="3637.48,3212.73 3630.75,3212.23 3630.33,3212.01"/>
    </edge>
    <edge id=":203629337_16" function="internal">
        <lane id=":203629337_16_0" index="0" disallow="tram rail_urban rail rail_electric rail_fast ship" speed="10.29" length="17.18" shape="3630.33,3212.01 3625.83,3209.72 3622.71,3205.21 3621.41,3198.69"/>
    </edge>
    <edge id=":203629337_8" function="internal">
        <lane id=":203629337_8_0" index="0" disallow="tram rail_urban rail rail_electric rail_fast ship" speed="7.22" length="11.47" shape="3631.00,3198.19 3631.55,3201.90 3632.74,3204.49 3634.58,3205.97 3637.06,3206.34"/>
    </edge>
    <edge id=":203629337_9" function="internal">
        <lane id=":203629337_9_0" index="0" disallow="tram rail_urban rail rail_electric rail_fast ship" speed="27.78" length="27.22" shape="3631.00,3198.19 3630.97,3206.74 3630.26,3213.09 3629.57,3218.76 3629.57,3225.29"/>
        <lane id=":203629337_9_1" index="1" disallow="tram rail_urban rail rail_electric rail_fast ship" speed="27.78" length="27.22" shape="3627.80,3198.36 3627.77,3206.94 3627.07,3213.31 3626.38,3219.00 3626.38,3225.54"/>
    </edge>
    <edge id=":203629337_11" function="internal">
        <lane id=":203629337_11_0" index="0" disallow="tram rail_urban rail rail_electric rail_fast ship" speed="10.45" length="24.49" shape="3624.61,3198.53 3624.01,3205.15 3621.42,3210.05 3616.85,3213.23 3610.29,3214.69"/>
    </edge>
    <edge id=":203629337_12" function="internal">
        <lane id=":203629337_12_0" index="0" disallow="tram rail_urban rail rail_electric rail_fast ship" speed="7.45" length="11.94" shape="3609.54,3205.11 3613.44,3204.46 3616.19,3203.20 3617.78,3201.33 3618.21,3198.86"/>
    </edge>
    <edge id=":203629337_13" function="internal">
        <lane id=":203629337_13_0" index="0" disallow="tram rail_urban rail rail_electric rail_fast ship" speed="16.77" length="27.58" shape="3609.54,3205.11 3618.23,3204.95 3624.71,3205.57 3630.48,3206.27 3637.06,3206.34"/>
        <lane id=":203629337_13_1" index="1" disallow="tram rail_urban rail rail_electric rail_fast ship" speed="16.77" length="27.58" shape="3609.79,3208.30 3618.46,3208.14 3624.93,3208.76 3630.69,3209.47 3637.27,3209.53"/>
    </edge>
    <edge id=":203629337_15" function="internal">
        <lane id=":203629337_15_0" index="0" disallow="tram rail_urban rail rail_electric rail_fast ship" speed="10.38" length="7.15" shape="3610.04,3211.50 3616.74,3211.93 3617.12,3212.12"/>
    </edge>
    <edge id=":203629337_17" function="internal">
        <lane id=":203629337_17_0" index="0" disallow="tram rail_urban rail rail_electric rail_fast ship" speed="10.38" length="17.43" shape="3617.12,3212.12 3621.70,3214.41 3624.91,3218.95 3626.38,3225.54"/>
    </edge>
    <edge id=":203629339_0" function="internal">
        <lane id=":203629339_0_0" index="0" disallow="tram rail_urban rail rail_electric rail_fast ship" speed="27.78" length="8.34" shape="3631.97,3380.91 3631.37,3378.57 3630.20,3377.16 3629.00,3375.76 3628.32,3373.42"/>
        <lane id=":203629339_0_1" index="1" disallow="tram rail_urban rail rail_electric rail_fast ship" speed="27.78" length="8.34" shape="3635.16,3380.78 3634.57,3378.40 3633.39,3376.97 3632.19,3375.54 3631.51,3373.17"/>
        <lane id=":203629339_0_2" index="2" disallow="tram rail_urban rail rail_electric rail_fast ship" speed="27.78" length="8.34" shape="3635.16,3380.78 3634.70,3372.92"/>
    </edge>
    <edge id=":203629339_3" function="internal">
        <lane id=":203629339_3_0" index="0" disallow="tram rail_urban rail rail_electric rail_fast ship" speed="27.78" length="8.60" shape="3641.08,3372.42 3641.77,3374.90 3642.98,3376.40 3644.15,3377.91 3644.76,3380.39"/>
        <lane id=":203629339_3_1" index="1" disallow="tram rail_urban rail rail_electric rail_fast ship" speed="27.78" length="8.60" shape="3637.89,3372.67 3638.58,3375.11 3639.78,3376.59 3640.96,3378.07 3641.56,3380.52"/>
        <lane id=":203629339_3_2" index="2" disallow="tram rail_urban rail rail_electric rail_fast ship" speed="27.78" length="8.60" shape="3637.89,3372.67 3638.36,3380.65"/>
    </edge>
    <edge id=":203632805_0" function="internal">
        <lane id=":203632805_0_0" index="0" disallow="tram rail_urban rail rail_electric rail_fast ship" speed="27.78" length="0.27" shape="8897.57,3240.81 8897.56,3240.56"/>
        <lane id=":203632805_0_1" index="1" disallow="tram rail_urban rail rail_electric rail_fast ship" speed="27.78" length="0.27" shape="8900.77,3240.66 8900.75,3240.38"/>
    </edge>
    <edge id=":203632805_2" function="internal">
        <lane id=":203632805_2_0" index="0" disallow="tram rail_urban rail rail_electric rail_fast ship" speed="27.78" length="0.33" shape="8907.14,3240.00 8907.16,3240.34"/>
        <lane id=":203632805_2_1" index="1" disallow="tram rail_urban rail rail_electric rail_fast ship" speed="27.78" length="0.33" shape="8903.95,3240.19 8903.97,3240.50"/>
    </edge>
    <edge id=":203632902_0" function="internal">
        <lane id=":203632902_0_0" index="0" disallow="tram rail_urban rail rail_electric rail_fast ship" speed="27.78" length="7.90" shape="6966.46,3088.37 6966.93,3096.25"/>
        <lane id=":203632902_0_1" index="1" disallow="tram rail_urban rail rail_electric rail_fast ship" speed="27.78" length="7.95" shape="6963.27,3088.53 6963.73,3096.46"/>
    </edge>
    <edge id=":203632902_2" function="internal">
        <lane id=":203632902_2_0" index="0" disallow="tram rail_urban rail rail_electric rail_fast ship" speed="27.78" length="8.88" shape="6957.35,3096.89 6956.68,3094.44 6955.49,3092.96 6954.30,3091.47 6953.68,3089.02"/>
        <lane id=":203632902_2_1" index="1" disallow="tram rail_urban rail rail_electric rail_fast ship" speed="27.78" length="8.83" shape="6960.54,3096.68 6959.88,3094.24 6958.68,3092.77 6957.50,3091.29 6956.87,3088.86"/>
        <lane id=":203632902_2_2" index="2" disallow="tram rail_urban rail rail_electric rail_fast ship" speed="27.78" length="8.00" shape="6960.54,3096.68 6960.07,3088.69"/>
    </edge>
    <edge id=":203637989_0" function="internal">
        <lane id=":203637989_0_0" index="0" disallow="tram rail_urban rail rail_electric rail_fast ship" speed="17.88" length="0.29" shape="8837.24,2291.65 8837.22,2291.36"/>
        <lane id=":203637989_0_1" index="1" disallow="tram rail_urban rail rail_electric rail_fast ship" speed="17.88" length="0.29" shape="8840.43,2291.45 8840.41,2291.15"/>
    </edge>
    <edge id=":203637989_2" function="internal">
        <lane id=":203637989_2_0" index="0" disallow="tram rail_urban rail rail_electric rail_fast ship" speed="17.88" length="0.31" shape="8846.80,2290.74 8846.82,2291.05"/>
        <lane id=":203637989_2_1" index="1" disallow="tram rail_urban rail rail_electric rail_fast ship" speed="17.88" length="0.31" shape="8843.61,2290.95 8843.63,2291.25"/>
    </edge>
    <edge id=":203639029_0" function="internal">
        <lane id=":203639029_0_0" index="0" disallow="tram rail_urban rail rail_electric rail_fast ship" speed="27.78" length="0.10" shape="5342.47,2073.06 5342.47,2073.06"/>
        <lane id=":203639029_0_1" index="1" disallow="tram rail_urban rail rail_electric rail_fast ship" speed="27.78" length="0.10" shape="5345.66,2072.88 5345.66,2072.88"/>
    </edge>
    <edge id=":203639029_2" function="internal">
        <lane id=":203639029_2_0" index="0" disallow="tram rail_urban rail rail_electric rail_fast ship" speed="27.78" length="0.10" shape="5355.25,2072.34 5355.25,2072.34"/>
        <lane id=":203639029_2_1" index="1" disallow="tram rail_urban rail rail_electric rail_fast ship" speed="27.78" length="0.10" shape="5352.05,2072.52 5352.05,2072.52"/>
        <lane id=":203639029_2_2" index="2" disallow="tram rail_urban rail rail_electric rail_fast ship" speed="27.78" length="0.10" shape="5348.86,2072.70 5348.86,2072.70"/>
    </edge>
    <edge id=":203639188_0" function="internal">
        <lane id=":203639188_0_0" index="0" disallow="tram rail_urban rail rail_electric rail_fast ship" speed="22.22" length="0.30" shape="8470.68,1430.98 8470.39,1430.98"/>
    </edge>
    <edge id=":203639188_1" function="internal">
        <lane id=":203639188_1_0" index="0" disallow="tram rail_urban rail rail_electric rail_fast ship" speed="22.22" length="0.30" shape="8470.31,1427.78 8470.62,1427.78"/>
    </edge>
    <edge id=":203639908_0" function="internal">
        <lane id=":203639908_0_0" index="0" disallow="tram rail_urban rail rail_electric rail_fast ship" speed="27.78" length="1.14" shape="5360.97,3500.47 5360.82,3500.84 5360.71,3501.08 5360.59,3501.32 5360.40,3501.67"/>
        <lane id=":203639908_0_1" index="1" disallow="tram rail_urban rail rail_electric rail_fast ship" speed="27.78" length="1.14" shape="5358.00,3499.28 5357.89,3499.54 5357.81,3499.72 5357.73,3499.89 5357.59,3500.14"/>
    </edge>
    <edge id=":203639908_2" function="internal">
        <lane id=":203639908_2_0" index="0" disallow="tram rail_urban rail rail_electric rail_fast ship" speed="27.78" length="0.38" shape="5351.97,3497.08 5352.00,3497.03 5352.02,3496.99 5352.03,3496.96 5352.05,3496.90"/>
        <lane id=":203639908_2_1" index="1" disallow="tram rail_urban rail rail_electric rail_fast ship" speed="27.78" length="0.38" shape="5354.78,3498.61 5354.86,3498.46 5354.92,3498.36 5354.96,3498.25 5355.03,3498.09"/>
    </edge>
    <edge id=":203640107_0" function="internal">
        <lane id=":203640107_0_0" index="0" disallow="tram rail_urban rail rail_electric rail_fast ship" speed="22.22" length="0.27" shape="4719.60,1397.82 4719.33,1397.84"/>
    </edge>
    <edge id=":203640107_1" function="internal">
        <lane id=":203640107_1_0" index="0" disallow="tram rail_urban rail rail_electric rail_fast ship" speed="22.22" length="0.31" shape="4719.10,1394.64 4719.42,1394.62"/>
    </edge>
    <edge id=":203640458_0" function="internal">
        <lane id=":203640458_0_0" index="0" disallow="tram rail_urban rail rail_electric rail_fast ship" speed="17.88" length="0.30" shape="8802.97,1751.84 8802.95,1751.54"/>
        <lane id=":203640458_0_1" index="1" disallow="tram rail_urban rail rail_electric rail_fast ship" speed="17.88" length="0.30" shape="8806.16,1751.64 8806.14,1751.34"/>
    </edge>
    <edge id=":203640458_2" function="internal">
        <lane id=":203640458_2_0" index="0" disallow="tram rail_urban rail rail_electric rail_fast ship" speed="17.88" length="0.30" shape="8812.53,1750.95 8812.55,1751.24"/>
        <lane id=":203640458_2_1" index="1" disallow="tram rail_urban rail rail_electric rail_fast ship" speed="17.88" length="0.30" shape="8809.34,1751.14 8809.36,1751.44"/>
    </edge>
    <edge id=":203640548_0" function="internal">
        <lane id=":203640548_0_0" index="0" disallow="tram rail_urban rail rail_electric rail_fast ship" speed="22.22" length="0.33" shape="4623.38,2010.75 4623.36,2010.42"/>
    </edge>
    <edge id=":203640548_1" function="internal">
        <lane id=":203640548_1_0" index="0" disallow="tram rail_urban rail rail_electric rail_fast ship" speed="3.65" length="2.34" shape="4623.38,2010.75 4624.10,2009.50 4624.87,2009.05"/>
    </edge>
    <edge id=":203640548_5" function="internal">
        <lane id=":203640548_5_0" index="0" disallow="tram rail_urban rail rail_electric rail_fast ship" speed="3.65" length="2.34" shape="4624.87,2009.05 4625.70,2009.40 4626.58,2010.54"/>
    </edge>
    <edge id=":203640548_2" function="internal">
        <lane id=":203640548_2_0" index="0" disallow="tram rail_urban rail rail_electric rail_fast ship" speed="22.22" length="0.27" shape="4629.76,2010.08 4629.77,2010.33"/>
        <lane id=":203640548_2_1" index="1" disallow="tram rail_urban rail rail_electric rail_fast ship" speed="22.22" length="0.27" shape="4626.56,2010.25 4626.58,2010.54"/>
    </edge>
    <edge id=":203640548_4" function="internal">
        <lane id=":203640548_4_0" index="0" disallow="tram rail_urban rail rail_electric rail_fast ship" speed="3.65" length="2.34" shape="4626.56,2010.25 4625.82,2011.49 4625.05,2011.93"/>
    </edge>
    <edge id=":203640548_6" function="internal">
        <lane id=":203640548_6_0" index="0" disallow="tram rail_urban rail rail_electric rail_fast ship" speed="3.65" length="2.34" shape="4625.05,2011.93 4624.23,2011.57 4623.36,2010.42"/>
    </edge>
    <edge id=":203640551_0" function="internal">
        <lane id=":203640551_0_0" index="0" disallow="tram rail_urban rail rail_electric rail_fast ship" speed="22.22" length="0.34" shape="4612.44,1816.95 4612.41,1816.61"/>
    </edge>
    <edge id=":203640551_1" function="internal">
        <lane id=":203640551_1_0" index="0" disallow="tram rail_urban rail rail_electric rail_fast ship" speed="3.65" length="2.34" shape="4612.44,1816.95 4613.14,1815.69 4613.91,1815.23"/>
    </edge>
    <edge id=":203640551_5" function="internal">
        <lane id=":203640551_5_0" index="0" disallow="tram rail_urban rail rail_electric rail_fast ship" speed="3.65" length="2.34" shape="4613.91,1815.23 4614.74,1815.57 4615.63,1816.70"/>
    </edge>
    <edge id=":203640551_2" function="internal">
        <lane id=":203640551_2_0" index="0" disallow="tram rail_urban rail rail_electric rail_fast ship" speed="22.22" length="0.26" shape="4618.80,1816.23 4618.82,1816.46"/>
        <lane id=":203640551_2_1" index="1" disallow="tram rail_urban rail rail_electric rail_fast ship" speed="22.22" length="0.26" shape="4615.61,1816.42 4615.63,1816.70"/>
    </edge>
    <edge id=":203640551_4" function="internal">
        <lane id=":203640551_4_0" index="0" disallow="tram rail_urban rail rail_electric rail_fast ship" speed="3.65" length="2.34" shape="4615.61,1816.42 4614.88,1817.66 4614.11,1818.11"/>
    </edge>
    <edge id=":203640551_6" function="internal">
        <lane id=":203640551_6_0" index="0" disallow="tram rail_urban rail rail_electric rail_fast ship" speed="3.65" length="2.34" shape="4614.11,1818.11 4613.28,1817.76 4612.41,1816.61"/>
    </edge>
    <edge id=":203640555_0" function="internal">
        <lane id=":203640555_0_0" index="0" disallow="tram rail_urban rail rail_electric rail_fast ship" speed="6.95" length="4.93" shape="4585.26,1459.21 4584.68,1458.08 4583.92,1457.16 4582.95,1456.44 4581.80,1455.93"/>
    </edge>
    <edge id=":203640555_1" function="internal">
        <lane id=":203640555_1_0" index="0" disallow="tram rail_urban rail rail_electric rail_fast ship" speed="9.39" length="9.42" shape="4582.80,1452.89 4586.28,1454.11 4588.85,1455.19 4590.49,1456.11 4591.22,1456.88"/>
        <lane id=":203640555_1_1" index="1" disallow="tram rail_urban rail rail_electric rail_fast ship" speed="8.56" length="7.75" shape="4582.80,1452.89 4584.62,1453.70 4586.13,1454.83 4587.34,1456.28 4588.24,1458.05"/>
    </edge>
    <edge id=":203645253_0" function="internal">
        <lane id=":203645253_0_0" index="0" disallow="tram rail_urban rail rail_electric rail_fast ship" speed="17.88" length="0.38" shape="8767.82,1141.09 8767.79,1140.68"/>
        <lane id=":203645253_0_1" index="1" disallow="tram rail_urban rail rail_electric rail_fast ship" speed="17.88" length="0.38" shape="8771.01,1140.84 8770.98,1140.50"/>
    </edge>
    <edge id=":203645253_2" function="internal">
        <lane id=":203645253_2_0" index="0" disallow="tram rail_urban rail rail_electric rail_fast ship" speed="17.88" length="0.21" shape="8780.57,1139.95 8780.58,1140.10"/>